
 OpenBabel11121517312D

 47 52  0  0  1  0  0  0  0  0999 V2000
    7.0848   -0.8369    0.0000 O   0  0  0  0  0  0  0  0  0  0  0  0
    5.9264    2.4871    0.0000 O   0  0  0  0  0  0  0  0  0  0  0  0
    3.5149   -1.7727    0.0000 N   0  0  0  0  0  0  0  0  0  0  0  0
    6.7689    0.9168    0.0000 N   0  0  0  0  0  0  0  0  0  0  0  0
    2.5848    1.1345    0.0000 N   0  0  0  0  0  0  0  0  0  0  0  0
    5.4803   -0.0617    0.0000 C   0  0  2  0  0  0  0  0  0  0  0  0
    5.1512    0.8826    0.0000 C   0  0  2  0  0  0  0  0  0  0  0  0
    4.9097   -0.8830    0.0000 C   0  0  0  0  0  0  0  0  0  0  0  0
    4.4088   -2.3073    0.0000 C   0  0  0  0  0  0  0  0  0  0  0  0
    5.2749   -1.8073    0.0000 C   0  0  0  0  0  0  0  0  0  0  0  0
    3.9161   -0.8634    0.0000 C   0  0  0  0  0  0  0  0  0  0  0  0
    2.6088   -2.2865    0.0000 C   0  0  0  0  0  0  0  0  0  0  0  0
    4.4088   -3.3073    0.0000 C   0  0  0  0  0  0  0  0  0  0  0  0
    4.1938    1.1714    0.0000 C   0  0  0  0  0  0  0  0  0  0  0  0
    2.6088   -3.3281    0.0000 C   0  0  0  0  0  0  0  0  0  0  0  0
    3.5149   -3.8420    0.0000 C   0  0  0  0  0  0  0  0  0  0  0  0
    6.4800   -0.0405    0.0000 C   0  0  0  0  0  0  0  0  0  0  0  0
    5.9476    1.4874    0.0000 C   0  0  0  0  0  0  0  0  0  0  0  0
    6.1409   -2.3073    0.0000 C   0  0  0  0  0  0  0  0  0  0  0  0
    3.8675    2.1104    0.0000 C   0  0  0  0  0  0  0  0  0  0  0  0
    5.2749   -3.8073    0.0000 C   0  0  0  0  0  0  0  0  0  0  0  0
    3.4026    0.5695    0.0000 C   0  0  0  0  0  0  0  0  0  0  0  0
    6.1409   -3.3073    0.0000 C   0  0  0  0  0  0  0  0  0  0  0  0
    2.8677    2.0875    0.0000 C   0  0  0  0  0  0  0  0  0  0  0  0
    4.3475    2.9876    0.0000 C   0  0  0  0  0  0  0  0  0  0  0  0
    2.3480    2.9418    0.0000 C   0  0  0  0  0  0  0  0  0  0  0  0
    3.8278    3.8420    0.0000 C   0  0  0  0  0  0  0  0  0  0  0  0
    2.8281    3.8191    0.0000 C   0  0  0  0  0  0  0  0  0  0  0  0
    4.6381    0.0534    0.0000 H   0  0  0  0  0  0  0  0  0  0  0  0
    4.5630    0.2689    0.0000 H   0  0  0  0  0  0  0  0  0  0  0  0
    3.5827   -0.3407    0.0000 H   0  0  0  0  0  0  0  0  0  0  0  0
    2.3998   -1.7028    0.0000 H   0  0  0  0  0  0  0  0  0  0  0  0
    1.9980   -2.3926    0.0000 H   0  0  0  0  0  0  0  0  0  0  0  0
    1.9980   -3.2220    0.0000 H   0  0  0  0  0  0  0  0  0  0  0  0
    2.3998   -3.9118    0.0000 H   0  0  0  0  0  0  0  0  0  0  0  0
    3.1213   -4.3210    0.0000 H   0  0  0  0  0  0  0  0  0  0  0  0
    3.9195   -4.3118    0.0000 H   0  0  0  0  0  0  0  0  0  0  0  0
    7.3543    1.1209    0.0000 H   0  0  0  0  0  0  0  0  0  0  0  0
    6.6778   -1.9973    0.0000 H   0  0  0  0  0  0  0  0  0  0  0  0
    5.2749   -4.4273    0.0000 H   0  0  0  0  0  0  0  0  0  0  0  0
    3.4168   -0.0503    0.0000 H   0  0  0  0  0  0  0  0  0  0  0  0
    6.6778   -3.6173    0.0000 H   0  0  0  0  0  0  0  0  0  0  0  0
    2.0000    0.9285    0.0000 H   0  0  0  0  0  0  0  0  0  0  0  0
    4.9674    3.0018    0.0000 H   0  0  0  0  0  0  0  0  0  0  0  0
    1.7282    2.9276    0.0000 H   0  0  0  0  0  0  0  0  0  0  0  0
    4.1254    4.3859    0.0000 H   0  0  0  0  0  0  0  0  0  0  0  0
    2.5059    4.3488    0.0000 H   0  0  0  0  0  0  0  0  0  0  0  0
  1 17  2  0  0  0  0
  2 18  2  0  0  0  0
  3  9  1  0  0  0  0
  3 11  1  0  0  0  0
  3 12  1  0  0  0  0
  4 17  1  0  0  0  0
  4 18  1  0  0  0  0
  4 38  1  0  0  0  0
  5 22  1  0  0  0  0
  5 24  1  0  0  0  0
  5 43  1  0  0  0  0
  6  7  1  0  0  0  0
  6  8  1  0  0  0  0
  6 17  1  0  0  0  0
  6 29  1  6  0  0  0
  7 14  1  0  0  0  0
  7 18  1  0  0  0  0
  7 30  1  1  0  0  0
  8 10  1  0  0  0  0
  8 11  2  0  0  0  0
  9 10  1  0  0  0  0
  9 13  2  0  0  0  0
 10 19  2  0  0  0  0
 11 31  1  0  0  0  0
 12 15  1  0  0  0  0
 12 32  1  0  0  0  0
 12 33  1  0  0  0  0
 13 16  1  0  0  0  0
 13 21  1  0  0  0  0
 14 20  1  0  0  0  0
 14 22  2  0  0  0  0
 15 16  1  0  0  0  0
 15 34  1  0  0  0  0
 15 35  1  0  0  0  0
 16 36  1  0  0  0  0
 16 37  1  0  0  0  0
 19 23  1  0  0  0  0
 19 39  1  0  0  0  0
 20 24  1  0  0  0  0
 20 25  2  0  0  0  0
 21 23  2  0  0  0  0
 21 40  1  0  0  0  0
 22 41  1  0  0  0  0
 23 42  1  0  0  0  0
 24 26  2  0  0  0  0
 25 27  1  0  0  0  0
 25 44  1  0  0  0  0
 26 28  1  0  0  0  0
 26 45  1  0  0  0  0
 27 28  2  0  0  0  0
 27 46  1  0  0  0  0
 28 47  1  0  0  0  0
M  END
>  <PUBCHEM_COMPOUND_CID>
11494412

>  <PUBCHEM_COMPOUND_CANONICALIZED>
1

>  <PUBCHEM_CACTVS_COMPLEXITY>
666

>  <PUBCHEM_CACTVS_HBOND_ACCEPTOR>
2

>  <PUBCHEM_CACTVS_HBOND_DONOR>
2

>  <PUBCHEM_CACTVS_ROTATABLE_BOND>
2

>  <PUBCHEM_CACTVS_SUBSKEYS>
AAADceB7MAAAAAAAAAAAAAAAAAAAAWLFgAA8YIAAAAAAAFix/gAAHgAQAAAADQjBngQ8wPPNkACoAzV3VACCgCAxAiAI2aE4ZJgIIPLAlZGEIAhglCDIyAcdicCegAACAAACAAAAAAQAAAQAAAAAAAAAAA==

>  <PUBCHEM_IUPAC_INCHI>
InChI=1S/C23H19N3O2/c27-22-19(16-11-24-18-9-2-1-7-14(16)18)20(23(28)25-22)17-12-26-10-4-6-13-5-3-8-15(17)21(13)26/h1-3,5,7-9,11-12,19-20,24H,4,6,10H2,(H,25,27,28)/t19-,20-/m0/s1

>  <PUBCHEM_IUPAC_INCHIKEY>
UCEQXRCJXIVODC-PMACEKPBSA-N

>  <PUBCHEM_XLOGP3_AA>
2.9

>  <PUBCHEM_EXACT_MASS>
369.147727

>  <PUBCHEM_MOLECULAR_FORMULA>
C23H19N3O2

>  <PUBCHEM_MOLECULAR_WEIGHT>
369.41586

>  <PUBCHEM_OPENEYE_CAN_SMILES>
C1CC2=CC=CC3=C2N(C1)C=C3C4C(C(=O)NC4=O)C5=CNC6=CC=CC=C65

>  <PUBCHEM_OPENEYE_ISO_SMILES>
C1CC2=CC=CC3=C2N(C1)C=C3[C@H]4[C@@H](C(=O)NC4=O)C5=CNC6=CC=CC=C65

>  <PUBCHEM_CACTVS_TPSA>
66.9

>  <PUBCHEM_MONOISOTOPIC_WEIGHT>
369.147727

>  <PUBCHEM_TOTAL_CHARGE>
0

>  <PUBCHEM_HEAVY_ATOM_COUNT>
28

>  <PUBCHEM_ATOM_DEF_STEREO_COUNT>
2

>  <PUBCHEM_ATOM_UDEF_STEREO_COUNT>
0

>  <PUBCHEM_BOND_DEF_STEREO_COUNT>
0

>  <PUBCHEM_BOND_UDEF_STEREO_COUNT>
0

>  <PUBCHEM_ISOTOPIC_ATOM_COUNT>
0

>  <PUBCHEM_COMPONENT_COUNT>
1

>  <PUBCHEM_CACTVS_TAUTO_COUNT>
8

>  <PUBCHEM_COORDINATE_TYPE>
1
5
255

>  <PUBCHEM_BONDANNOTATIONS>
10  19  8
13  21  8
14  20  8
14  22  8
19  23  8
20  24  8
20  25  8
21  23  8
24  26  8
25  27  8
26  28  8
27  28  8
3  11  8
3  9  8
5  22  8
5  24  8
6  29  6
7  30  5
8  10  8
8  11  8
9  10  8
9  13  8

$$$$
