
 OpenBabel11121517312D

 61 67  0  0  1  0  0  0  0  0999 V2000
    2.3789    0.8551    0.0000 O   0  0  0  0  0  0  0  0  0  0  0  0
   13.3396   -2.1327    0.0000 O   0  0  0  0  0  0  0  0  0  0  0  0
    4.0271    1.3875    0.0000 N   0  0  0  0  0  0  0  0  0  0  0  0
    5.7842   -1.1187    0.0000 N   0  0  0  0  0  0  0  0  0  0  0  0
    5.7842   -2.7282    0.0000 N   0  0  0  0  0  0  0  0  0  0  0  0
    3.1059   -2.4235    0.0000 N   0  0  0  0  0  0  0  0  0  0  0  0
    2.7420    2.5487    0.0000 C   0  0  0  0  0  0  0  0  0  0  0  0
    2.9516    3.5265    0.0000 C   0  0  0  0  0  0  0  0  0  0  0  0
    2.0000    3.2191    0.0000 C   0  0  0  0  0  0  0  0  0  0  0  0
    5.4270    0.5761    0.0000 C   0  0  1  0  0  0  0  0  0  0  0  0
    4.4323    0.4733    0.0000 C   0  0  0  0  0  0  0  0  0  0  0  0
    5.6366    1.5539    0.0000 C   0  0  0  0  0  0  0  0  0  0  0  0
    3.0494    1.5971    0.0000 C   0  0  0  0  0  0  0  0  0  0  0  0
    4.7714    2.0554    0.0000 C   0  0  0  0  0  0  0  0  0  0  0  0
    6.0948   -0.1682    0.0000 C   0  0  0  0  0  0  0  0  0  0  0  0
    4.8380   -1.4235    0.0000 C   0  0  0  0  0  0  0  0  0  0  0  0
    6.3678   -1.9235    0.0000 C   0  0  0  0  0  0  0  0  0  0  0  0
    4.8380   -2.4235    0.0000 C   0  0  0  0  0  0  0  0  0  0  0  0
    7.3678   -1.9235    0.0000 C   0  0  0  0  0  0  0  0  0  0  0  0
    3.9719   -0.9235    0.0000 C   0  0  0  0  0  0  0  0  0  0  0  0
    3.9719   -2.9235    0.0000 C   0  0  0  0  0  0  0  0  0  0  0  0
    7.8678   -1.0574    0.0000 C   0  0  0  0  0  0  0  0  0  0  0  0
    7.8678   -2.7895    0.0000 C   0  0  0  0  0  0  0  0  0  0  0  0
    3.1059   -1.4235    0.0000 C   0  0  0  0  0  0  0  0  0  0  0  0
    8.8678   -1.0574    0.0000 C   0  0  0  0  0  0  0  0  0  0  0  0
    8.8678   -2.7895    0.0000 C   0  0  0  0  0  0  0  0  0  0  0  0
    9.3678   -1.9235    0.0000 C   0  0  0  0  0  0  0  0  0  0  0  0
   10.3678   -1.9235    0.0000 C   0  0  0  0  0  0  0  0  0  0  0  0
   10.8678   -2.7895    0.0000 C   0  0  0  0  0  0  0  0  0  0  0  0
   10.8678   -1.0574    0.0000 C   0  0  0  0  0  0  0  0  0  0  0  0
   11.8678   -2.7895    0.0000 C   0  0  0  0  0  0  0  0  0  0  0  0
   12.3678   -1.9235    0.0000 C   0  0  0  0  0  0  0  0  0  0  0  0
   11.8678   -1.0574    0.0000 C   0  0  0  0  0  0  0  0  0  0  0  0
   12.5349   -3.5265    0.0000 C   0  0  0  0  0  0  0  0  0  0  0  0
   13.4427   -3.1214    0.0000 C   0  0  0  0  0  0  0  0  0  0  0  0
    3.3612    2.5801    0.0000 H   0  0  0  0  0  0  0  0  0  0  0  0
    3.5712    3.5038    0.0000 H   0  0  0  0  0  0  0  0  0  0  0  0
    2.8664    4.1406    0.0000 H   0  0  0  0  0  0  0  0  0  0  0  0
    1.7099    3.7671    0.0000 H   0  0  0  0  0  0  0  0  0  0  0  0
    1.5108    2.8383    0.0000 H   0  0  0  0  0  0  0  0  0  0  0  0
    6.0262    0.7355    0.0000 H   0  0  0  0  0  0  0  0  0  0  0  0
    3.8423    0.2827    0.0000 H   0  0  0  0  0  0  0  0  0  0  0  0
    4.5602   -0.1334    0.0000 H   0  0  0  0  0  0  0  0  0  0  0  0
    6.2259    1.3613    0.0000 H   0  0  0  0  0  0  0  0  0  0  0  0
    5.8898    2.1198    0.0000 H   0  0  0  0  0  0  0  0  0  0  0  0
    5.1367    2.5563    0.0000 H   0  0  0  0  0  0  0  0  0  0  0  0
    4.3114    2.4710    0.0000 H   0  0  0  0  0  0  0  0  0  0  0  0
    6.6418   -0.4602    0.0000 H   0  0  0  0  0  0  0  0  0  0  0  0
    6.4774    0.3197    0.0000 H   0  0  0  0  0  0  0  0  0  0  0  0
    3.9719   -0.3035    0.0000 H   0  0  0  0  0  0  0  0  0  0  0  0
    3.9719   -3.5435    0.0000 H   0  0  0  0  0  0  0  0  0  0  0  0
    7.5578   -0.5205    0.0000 H   0  0  0  0  0  0  0  0  0  0  0  0
    7.5578   -3.3264    0.0000 H   0  0  0  0  0  0  0  0  0  0  0  0
    2.5690   -1.1135    0.0000 H   0  0  0  0  0  0  0  0  0  0  0  0
    9.1778   -0.5205    0.0000 H   0  0  0  0  0  0  0  0  0  0  0  0
    9.1778   -3.3264    0.0000 H   0  0  0  0  0  0  0  0  0  0  0  0
   10.5578   -3.3264    0.0000 H   0  0  0  0  0  0  0  0  0  0  0  0
   10.5578   -0.5205    0.0000 H   0  0  0  0  0  0  0  0  0  0  0  0
   12.1778   -0.5205    0.0000 H   0  0  0  0  0  0  0  0  0  0  0  0
   12.4070   -4.1332    0.0000 H   0  0  0  0  0  0  0  0  0  0  0  0
   13.9796   -3.4314    0.0000 H   0  0  0  0  0  0  0  0  0  0  0  0
  1 13  2  0  0  0  0
  2 32  1  0  0  0  0
  2 35  1  0  0  0  0
  3 11  1  0  0  0  0
  3 13  1  0  0  0  0
  3 14  1  0  0  0  0
  4 15  1  0  0  0  0
  4 16  1  0  0  0  0
  4 17  1  0  0  0  0
  5 17  2  0  0  0  0
  5 18  1  0  0  0  0
  6 21  2  0  0  0  0
  6 24  1  0  0  0  0
  7  8  1  0  0  0  0
  7  9  1  0  0  0  0
  7 13  1  0  0  0  0
  7 36  1  0  0  0  0
  8  9  1  0  0  0  0
  8 37  1  0  0  0  0
  8 38  1  0  0  0  0
  9 39  1  0  0  0  0
  9 40  1  0  0  0  0
 10 11  1  0  0  0  0
 10 12  1  0  0  0  0
 10 15  1  0  0  0  0
 10 41  1  6  0  0  0
 11 42  1  0  0  0  0
 11 43  1  0  0  0  0
 12 14  1  0  0  0  0
 12 44  1  0  0  0  0
 12 45  1  0  0  0  0
 14 46  1  0  0  0  0
 14 47  1  0  0  0  0
 15 48  1  0  0  0  0
 15 49  1  0  0  0  0
 16 18  2  0  0  0  0
 16 20  1  0  0  0  0
 17 19  1  0  0  0  0
 18 21  1  0  0  0  0
 19 22  2  0  0  0  0
 19 23  1  0  0  0  0
 20 24  2  0  0  0  0
 20 50  1  0  0  0  0
 21 51  1  0  0  0  0
 22 25  1  0  0  0  0
 22 52  1  0  0  0  0
 23 26  2  0  0  0  0
 23 53  1  0  0  0  0
 24 54  1  0  0  0  0
 25 27  2  0  0  0  0
 25 55  1  0  0  0  0
 26 27  1  0  0  0  0
 26 56  1  0  0  0  0
 27 28  1  0  0  0  0
 28 29  2  0  0  0  0
 28 30  1  0  0  0  0
 29 31  1  0  0  0  0
 29 57  1  0  0  0  0
 30 33  2  0  0  0  0
 30 58  1  0  0  0  0
 31 32  2  0  0  0  0
 31 34  1  0  0  0  0
 32 33  1  0  0  0  0
 33 59  1  0  0  0  0
 34 35  2  0  0  0  0
 34 60  1  0  0  0  0
 35 61  1  0  0  0  0
M  END
>  <PUBCHEM_COMPOUND_CID>
57519543

>  <PUBCHEM_COMPOUND_CANONICALIZED>
1

>  <PUBCHEM_CACTVS_COMPLEXITY>
766

>  <PUBCHEM_CACTVS_HBOND_ACCEPTOR>
4

>  <PUBCHEM_CACTVS_HBOND_DONOR>
0

>  <PUBCHEM_CACTVS_ROTATABLE_BOND>
5

>  <PUBCHEM_CACTVS_SUBSKEYS>
AAADceB7sAAAAAAAAAAAAAAAGAAAAWLEgAA8YIAAAAAAAFgB/gAAHgAAAAAADQzhnwY91vcMFECoA7939ACCiC01MqAJ2CE+fNiMbvLE/duWPSjsxhPI6aeYyPCO4AACAAAIAADAAAQAABAAAAAAAAAAAA==

>  <PUBCHEM_IUPAC_OPENEYE_NAME>
[(3S)-3-[[2-[4-(benzofuran-5-yl)phenyl]imidazo[4,5-c]pyridin-1-yl]methyl]pyrrolidin-1-yl]-cyclopropyl-methanone

>  <PUBCHEM_IUPAC_CAS_NAME>
[(3S)-3-[[2-[4-(5-benzofuranyl)phenyl]-1-imidazo[4,5-c]pyridinyl]methyl]-1-pyrrolidinyl]-cyclopropylmethanone

>  <PUBCHEM_IUPAC_NAME>
[(3S)-3-[[2-[4-(1-benzofuran-5-yl)phenyl]imidazo[4,5-c]pyridin-1-yl]methyl]pyrrolidin-1-yl]-cyclopropylmethanone

>  <PUBCHEM_IUPAC_SYSTEMATIC_NAME>
[(3S)-3-[[2-[4-(1-benzofuran-5-yl)phenyl]imidazo[4,5-c]pyridin-1-yl]methyl]pyrrolidin-1-yl]-cyclopropyl-methanone

>  <PUBCHEM_IUPAC_TRADITIONAL_NAME>
[(3S)-3-[[2-[4-(benzofuran-5-yl)phenyl]imidazo[4,5-c]pyridin-1-yl]methyl]pyrrolidino]-cyclopropyl-methanone

>  <PUBCHEM_IUPAC_INCHI>
InChI=1S/C29H26N4O2/c34-29(22-5-6-22)32-13-10-19(17-32)18-33-26-9-12-30-16-25(26)31-28(33)21-3-1-20(2-4-21)23-7-8-27-24(15-23)11-14-35-27/h1-4,7-9,11-12,14-16,19,22H,5-6,10,13,17-18H2/t19-/m1/s1

>  <PUBCHEM_IUPAC_INCHIKEY>
MXQGGBTXHJSPPG-LJQANCHMSA-N

>  <PUBCHEM_XLOGP3_AA>
4.3

>  <PUBCHEM_EXACT_MASS>
462.205576

>  <PUBCHEM_MOLECULAR_FORMULA>
C29H26N4O2

>  <PUBCHEM_MOLECULAR_WEIGHT>
462.54234

>  <PUBCHEM_OPENEYE_CAN_SMILES>
C1CC1C(=O)N2CCC(C2)CN3C4=C(C=NC=C4)N=C3C5=CC=C(C=C5)C6=CC7=C(C=C6)OC=C7

>  <PUBCHEM_OPENEYE_ISO_SMILES>
C1CN(C[C@@H]1CN2C3=C(C=NC=C3)N=C2C4=CC=C(C=C4)C5=CC6=C(C=C5)OC=C6)C(=O)C7CC7

>  <PUBCHEM_CACTVS_TPSA>
64.2

>  <PUBCHEM_MONOISOTOPIC_WEIGHT>
462.205576

>  <PUBCHEM_TOTAL_CHARGE>
0

>  <PUBCHEM_HEAVY_ATOM_COUNT>
35

>  <PUBCHEM_ATOM_DEF_STEREO_COUNT>
1

>  <PUBCHEM_ATOM_UDEF_STEREO_COUNT>
0

>  <PUBCHEM_BOND_DEF_STEREO_COUNT>
0

>  <PUBCHEM_BOND_UDEF_STEREO_COUNT>
0

>  <PUBCHEM_ISOTOPIC_ATOM_COUNT>
0

>  <PUBCHEM_COMPONENT_COUNT>
1

>  <PUBCHEM_CACTVS_TAUTO_COUNT>
1

>  <PUBCHEM_COORDINATE_TYPE>
1
5
255

>  <PUBCHEM_BONDANNOTATIONS>
10  15  5
16  18  8
16  20  8
18  21  8
19  22  8
19  23  8
2  32  8
2  35  8
20  24  8
22  25  8
23  26  8
25  27  8
26  27  8
28  29  8
28  30  8
29  31  8
30  33  8
31  32  8
31  34  8
32  33  8
34  35  8
4  16  8
4  17  8
5  17  8
5  18  8
6  21  8
6  24  8

$$$$
