
 OpenBabel11121517312D

 65 69  0  0  1  0  0  0  0  0999 V2000
    5.4641   -3.7671    0.0000 O   0  0  0  0  0  0  0  0  0  0  0  0
    2.0000    2.2329    0.0000 O   0  0  0  0  0  0  0  0  0  0  0  0
   11.5865    2.7671    0.0000 O   0  0  0  0  0  0  0  0  0  0  0  0
   11.5981   -0.2329    0.0000 O   0  0  0  0  0  0  0  0  0  0  0  0
    5.4641   -1.7671    0.0000 N   0  0  0  0  0  0  0  0  0  0  0  0
    3.7320    1.2329    0.0000 N   0  0  0  0  0  0  0  0  0  0  0  0
    4.5981   -0.2671    0.0000 N   0  0  0  0  0  0  0  0  0  0  0  0
    5.4641    1.2329    0.0000 N   0  0  0  0  0  0  0  0  0  0  0  0
    7.2241    1.2676    0.0000 N   0  0  0  0  0  0  0  0  0  0  0  0
    4.5981   -2.2671    0.0000 C   0  0  2  0  0  0  0  0  0  0  0  0
    3.7320    2.2329    0.0000 C   0  0  2  0  0  0  0  0  0  0  0  0
    6.3301   -2.2671    0.0000 C   0  0  0  0  0  0  0  0  0  0  0  0
    4.5981   -3.2671    0.0000 C   0  0  0  0  0  0  0  0  0  0  0  0
    5.4641   -0.7671    0.0000 C   0  0  0  0  0  0  0  0  0  0  0  0
    2.8660    0.7329    0.0000 C   0  0  0  0  0  0  0  0  0  0  0  0
    2.8660    2.7329    0.0000 C   0  0  0  0  0  0  0  0  0  0  0  0
    6.3301   -3.2671    0.0000 C   0  0  0  0  0  0  0  0  0  0  0  0
    4.5981    0.7329    0.0000 C   0  0  0  0  0  0  0  0  0  0  0  0
    2.0000    1.2329    0.0000 C   0  0  0  0  0  0  0  0  0  0  0  0
    3.7320   -1.7671    0.0000 C   0  0  0  0  0  0  0  0  0  0  0  0
    6.3301   -0.2671    0.0000 C   0  0  0  0  0  0  0  0  0  0  0  0
    4.5981    2.7329    0.0000 C   0  0  0  0  0  0  0  0  0  0  0  0
    6.3301    0.7329    0.0000 C   0  0  0  0  0  0  0  0  0  0  0  0
    7.2241   -0.8017    0.0000 C   0  0  0  0  0  0  0  0  0  0  0  0
    8.1301    0.7537    0.0000 C   0  0  0  0  0  0  0  0  0  0  0  0
    8.1301   -0.2879    0.0000 C   0  0  0  0  0  0  0  0  0  0  0  0
    8.9942    1.2571    0.0000 C   0  0  0  0  0  0  0  0  0  0  0  0
    9.8622    0.7604    0.0000 C   0  0  0  0  0  0  0  0  0  0  0  0
    8.9904    2.2571    0.0000 C   0  0  0  0  0  0  0  0  0  0  0  0
   10.7263    1.2638    0.0000 C   0  0  0  0  0  0  0  0  0  0  0  0
   10.7224    2.2638    0.0000 C   0  0  0  0  0  0  0  0  0  0  0  0
    9.8545    2.7604    0.0000 C   0  0  0  0  0  0  0  0  0  0  0  0
   11.5942    0.7671    0.0000 C   0  0  0  0  0  0  0  0  0  0  0  0
   11.5826    3.7671    0.0000 C   0  0  0  0  0  0  0  0  0  0  0  0
    4.5981   -1.6471    0.0000 H   0  0  0  0  0  0  0  0  0  0  0  0
    4.2690    1.9229    0.0000 H   0  0  0  0  0  0  0  0  0  0  0  0
    6.9407   -2.3747    0.0000 H   0  0  0  0  0  0  0  0  0  0  0  0
    6.5422   -1.6845    0.0000 H   0  0  0  0  0  0  0  0  0  0  0  0
    3.9875   -3.1594    0.0000 H   0  0  0  0  0  0  0  0  0  0  0  0
    4.3860   -3.8497    0.0000 H   0  0  0  0  0  0  0  0  0  0  0  0
    2.4675    0.2580    0.0000 H   0  0  0  0  0  0  0  0  0  0  0  0
    3.2646    0.2580    0.0000 H   0  0  0  0  0  0  0  0  0  0  0  0
    3.2646    3.2079    0.0000 H   0  0  0  0  0  0  0  0  0  0  0  0
    2.4675    3.2079    0.0000 H   0  0  0  0  0  0  0  0  0  0  0  0
    6.5422   -3.8497    0.0000 H   0  0  0  0  0  0  0  0  0  0  0  0
    6.9407   -3.1594    0.0000 H   0  0  0  0  0  0  0  0  0  0  0  0
    1.3894    1.3406    0.0000 H   0  0  0  0  0  0  0  0  0  0  0  0
    1.7880    0.6503    0.0000 H   0  0  0  0  0  0  0  0  0  0  0  0
    4.0420   -1.2301    0.0000 H   0  0  0  0  0  0  0  0  0  0  0  0
    3.1951   -1.4571    0.0000 H   0  0  0  0  0  0  0  0  0  0  0  0
    3.4220   -2.3040    0.0000 H   0  0  0  0  0  0  0  0  0  0  0  0
    4.9081    2.1960    0.0000 H   0  0  0  0  0  0  0  0  0  0  0  0
    5.1350    3.0429    0.0000 H   0  0  0  0  0  0  0  0  0  0  0  0
    4.2881    3.2699    0.0000 H   0  0  0  0  0  0  0  0  0  0  0  0
    7.2169   -1.4217    0.0000 H   0  0  0  0  0  0  0  0  0  0  0  0
    8.6659   -0.6000    0.0000 H   0  0  0  0  0  0  0  0  0  0  0  0
    9.8646    0.1404    0.0000 H   0  0  0  0  0  0  0  0  0  0  0  0
    8.4522    2.5650    0.0000 H   0  0  0  0  0  0  0  0  0  0  0  0
    9.8521    3.3804    0.0000 H   0  0  0  0  0  0  0  0  0  0  0  0
   12.2052    0.6618    0.0000 H   0  0  0  0  0  0  0  0  0  0  0  0
   11.8040    1.3505    0.0000 H   0  0  0  0  0  0  0  0  0  0  0  0
   12.1362   -0.5408    0.0000 H   0  0  0  0  0  0  0  0  0  0  0  0
   12.2026    3.7695    0.0000 H   0  0  0  0  0  0  0  0  0  0  0  0
   11.5803    4.3871    0.0000 H   0  0  0  0  0  0  0  0  0  0  0  0
   10.9627    3.7647    0.0000 H   0  0  0  0  0  0  0  0  0  0  0  0
  1 13  1  0  0  0  0
  1 17  1  0  0  0  0
  2 16  1  0  0  0  0
  2 19  1  0  0  0  0
  3 31  1  0  0  0  0
  3 34  1  0  0  0  0
  4 33  1  0  0  0  0
  4 62  1  0  0  0  0
  5 10  1  0  0  0  0
  5 12  1  0  0  0  0
  5 14  1  0  0  0  0
  6 11  1  0  0  0  0
  6 15  1  0  0  0  0
  6 18  1  0  0  0  0
  7 14  2  0  0  0  0
  7 18  1  0  0  0  0
  8 18  2  0  0  0  0
  8 23  1  0  0  0  0
  9 23  1  0  0  0  0
  9 25  2  0  0  0  0
 10 13  1  0  0  0  0
 10 20  1  0  0  0  0
 10 35  1  1  0  0  0
 11 16  1  0  0  0  0
 11 22  1  0  0  0  0
 11 36  1  1  0  0  0
 12 17  1  0  0  0  0
 12 37  1  0  0  0  0
 12 38  1  0  0  0  0
 13 39  1  0  0  0  0
 13 40  1  0  0  0  0
 14 21  1  0  0  0  0
 15 19  1  0  0  0  0
 15 41  1  0  0  0  0
 15 42  1  0  0  0  0
 16 43  1  0  0  0  0
 16 44  1  0  0  0  0
 17 45  1  0  0  0  0
 17 46  1  0  0  0  0
 19 47  1  0  0  0  0
 19 48  1  0  0  0  0
 20 49  1  0  0  0  0
 20 50  1  0  0  0  0
 20 51  1  0  0  0  0
 21 23  2  0  0  0  0
 21 24  1  0  0  0  0
 22 52  1  0  0  0  0
 22 53  1  0  0  0  0
 22 54  1  0  0  0  0
 24 26  2  0  0  0  0
 24 55  1  0  0  0  0
 25 26  1  0  0  0  0
 25 27  1  0  0  0  0
 26 56  1  0  0  0  0
 27 28  2  0  0  0  0
 27 29  1  0  0  0  0
 28 30  1  0  0  0  0
 28 57  1  0  0  0  0
 29 32  2  0  0  0  0
 29 58  1  0  0  0  0
 30 31  2  0  0  0  0
 30 33  1  0  0  0  0
 31 32  1  0  0  0  0
 32 59  1  0  0  0  0
 33 60  1  0  0  0  0
 33 61  1  0  0  0  0
 34 63  1  0  0  0  0
 34 64  1  0  0  0  0
 34 65  1  0  0  0  0
M  END
>  <PUBCHEM_COMPOUND_CID>
25262965

>  <PUBCHEM_COMPOUND_CANONICALIZED>
1

>  <PUBCHEM_CACTVS_COMPLEXITY>
659

>  <PUBCHEM_CACTVS_HBOND_ACCEPTOR>
9

>  <PUBCHEM_CACTVS_HBOND_DONOR>
1

>  <PUBCHEM_CACTVS_ROTATABLE_BOND>
5

>  <PUBCHEM_CACTVS_SUBSKEYS>
AAADceB7uAAAAAAAAAAAAAAAAAAAAAAAAAA8WLFiAAAAAACx/AAAHgAACAAADCzhnwYztt8IFgCgAyZiZACCiCkhIqAJmCA+bJiOP+LE+duHdChtwBPY+CeQ0OMOIAACAAAIAABAAAQAABAAAAAAAAAAAA==

>  <PUBCHEM_IUPAC_OPENEYE_NAME>
[5-[2,4-bis[(3S)-3-methylmorpholin-4-yl]pyrido[2,3-d]pyrimidin-7-yl]-2-methoxy-phenyl]methanol

>  <PUBCHEM_IUPAC_CAS_NAME>
[5-[2,4-bis[(3S)-3-methyl-4-morpholinyl]-7-pyrido[2,3-d]pyrimidinyl]-2-methoxyphenyl]methanol

>  <PUBCHEM_IUPAC_NAME>
[5-[2,4-bis[(3S)-3-methylmorpholin-4-yl]pyrido[2,3-d]pyrimidin-7-yl]-2-methoxyphenyl]methanol

>  <PUBCHEM_IUPAC_SYSTEMATIC_NAME>
[5-[2,4-bis[(3S)-3-methylmorpholin-4-yl]pyrido[2,3-d]pyrimidin-7-yl]-2-methoxy-phenyl]methanol

>  <PUBCHEM_IUPAC_TRADITIONAL_NAME>
[5-[2,4-bis[(3S)-3-methylmorpholino]pyrido[2,3-d]pyrimidin-7-yl]-2-methoxy-phenyl]methanol

>  <PUBCHEM_IUPAC_INCHI>
InChI=1S/C25H31N5O4/c1-16-14-33-10-8-29(16)24-20-5-6-21(18-4-7-22(32-3)19(12-18)13-31)26-23(20)27-25(28-24)30-9-11-34-15-17(30)2/h4-7,12,16-17,31H,8-11,13-15H2,1-3H3/t16-,17-/m0/s1

>  <PUBCHEM_IUPAC_INCHIKEY>
KVLFRAWTRWDEDF-IRXDYDNUSA-N

>  <PUBCHEM_XLOGP3_AA>
2.6

>  <PUBCHEM_EXACT_MASS>
465.237604

>  <PUBCHEM_MOLECULAR_FORMULA>
C25H31N5O4

>  <PUBCHEM_MOLECULAR_WEIGHT>
465.54474

>  <PUBCHEM_OPENEYE_CAN_SMILES>
CC1COCCN1C2=NC(=NC3=C2C=CC(=N3)C4=CC(=C(C=C4)OC)CO)N5CCOCC5C

>  <PUBCHEM_OPENEYE_ISO_SMILES>
C[C@H]1COCCN1C2=NC(=NC3=C2C=CC(=N3)C4=CC(=C(C=C4)OC)CO)N5CCOC[C@@H]5C

>  <PUBCHEM_CACTVS_TPSA>
93.1

>  <PUBCHEM_MONOISOTOPIC_WEIGHT>
465.237604

>  <PUBCHEM_TOTAL_CHARGE>
0

>  <PUBCHEM_HEAVY_ATOM_COUNT>
34

>  <PUBCHEM_ATOM_DEF_STEREO_COUNT>
2

>  <PUBCHEM_ATOM_UDEF_STEREO_COUNT>
0

>  <PUBCHEM_BOND_DEF_STEREO_COUNT>
0

>  <PUBCHEM_BOND_UDEF_STEREO_COUNT>
0

>  <PUBCHEM_ISOTOPIC_ATOM_COUNT>
0

>  <PUBCHEM_COMPONENT_COUNT>
1

>  <PUBCHEM_CACTVS_TAUTO_COUNT>
1

>  <PUBCHEM_COORDINATE_TYPE>
1
5
255

>  <PUBCHEM_BONDANNOTATIONS>
10  20  6
11  22  6
14  21  8
21  23  8
21  24  8
24  26  8
25  26  8
27  28  8
27  29  8
28  30  8
29  32  8
30  31  8
31  32  8
7  14  8
7  18  8
8  18  8
8  23  8
9  23  8
9  25  8

$$$$
