
 OpenBabel11121517312D

 60 64  0  0  0  0  0  0  0  0999 V2000
    8.7720   -3.6282    0.0000 F   0  0  0  0  0  0  0  0  0  0  0  0
    5.3147    1.4062    0.0000 O   0  0  0  0  0  0  0  0  0  0  0  0
    8.7952   -1.6284    0.0000 O   0  0  0  0  0  0  0  0  0  0  0  0
    5.3147   -0.5938    0.0000 O   0  0  0  0  0  0  0  0  0  0  0  0
    3.5827    4.4062    0.0000 N   0  0  0  0  0  0  0  0  0  0  0  0
   12.1050   -3.8339    0.0000 N   0  0  0  0  0  0  0  0  0  0  0  0
    8.8067    1.4409    0.0000 N   0  0  0  0  0  0  0  0  0  0  0  0
    9.7128   -0.1146    0.0000 N   0  0  0  0  0  0  0  0  0  0  0  0
    3.4782    5.4008    0.0000 C   0  0  0  0  0  0  0  0  0  0  0  0
    2.6691    3.9995    0.0000 C   0  0  0  0  0  0  0  0  0  0  0  0
    2.5000    5.6087    0.0000 C   0  0  0  0  0  0  0  0  0  0  0  0
    2.0000    4.7426    0.0000 C   0  0  0  0  0  0  0  0  0  0  0  0
    4.4487    3.9062    0.0000 C   0  0  0  0  0  0  0  0  0  0  0  0
    4.4487    2.9062    0.0000 C   0  0  0  0  0  0  0  0  0  0  0  0
    5.3147    2.4062    0.0000 C   0  0  0  0  0  0  0  0  0  0  0  0
    6.1808    0.9062    0.0000 C   0  0  0  0  0  0  0  0  0  0  0  0
    6.1808   -0.0938    0.0000 C   0  0  0  0  0  0  0  0  0  0  0  0
    7.0468    1.4062    0.0000 C   0  0  0  0  0  0  0  0  0  0  0  0
    7.9128   -0.0938    0.0000 C   0  0  0  0  0  0  0  0  0  0  0  0
    7.9128    0.9062    0.0000 C   0  0  0  0  0  0  0  0  0  0  0  0
   10.5040   -3.6483    0.0000 C   0  0  0  0  0  0  0  0  0  0  0  0
   11.3757   -3.1583    0.0000 C   0  0  0  0  0  0  0  0  0  0  0  0
    7.0468   -0.5938    0.0000 C   0  0  0  0  0  0  0  0  0  0  0  0
   11.6894   -4.7369    0.0000 C   0  0  0  0  0  0  0  0  0  0  0  0
   10.7019   -4.6224    0.0000 C   0  0  0  0  0  0  0  0  0  0  0  0
    8.8067   -0.6284    0.0000 C   0  0  0  0  0  0  0  0  0  0  0  0
    9.6438   -3.1383    0.0000 C   0  0  0  0  0  0  0  0  0  0  0  0
    9.6554   -2.1384    0.0000 C   0  0  0  0  0  0  0  0  0  0  0  0
   11.3873   -2.1584    0.0000 C   0  0  0  0  0  0  0  0  0  0  0  0
   10.5271   -1.6484    0.0000 C   0  0  0  0  0  0  0  0  0  0  0  0
   12.1794   -5.6087    0.0000 C   0  0  0  0  0  0  0  0  0  0  0  0
    9.7128    0.9270    0.0000 C   0  0  0  0  0  0  0  0  0  0  0  0
    5.3147   -1.5938    0.0000 C   0  0  0  0  0  0  0  0  0  0  0  0
    2.1675    3.6351    0.0000 H   0  0  0  0  0  0  0  0  0  0  0  0
    2.9791    3.4626    0.0000 H   0  0  0  0  0  0  0  0  0  0  0  0
    4.0982    5.4008    0.0000 H   0  0  0  0  0  0  0  0  0  0  0  0
    3.5430    6.0174    0.0000 H   0  0  0  0  0  0  0  0  0  0  0  0
    1.4984    5.1071    0.0000 H   0  0  0  0  0  0  0  0  0  0  0  0
    1.5851    4.2819    0.0000 H   0  0  0  0  0  0  0  0  0  0  0  0
    2.6916    6.1983    0.0000 H   0  0  0  0  0  0  0  0  0  0  0  0
    1.9336    5.8608    0.0000 H   0  0  0  0  0  0  0  0  0  0  0  0
    5.0593    3.7986    0.0000 H   0  0  0  0  0  0  0  0  0  0  0  0
    4.6608    4.4888    0.0000 H   0  0  0  0  0  0  0  0  0  0  0  0
    3.8381    3.0139    0.0000 H   0  0  0  0  0  0  0  0  0  0  0  0
    4.2366    2.3236    0.0000 H   0  0  0  0  0  0  0  0  0  0  0  0
    5.9253    2.2986    0.0000 H   0  0  0  0  0  0  0  0  0  0  0  0
    5.5268    2.9888    0.0000 H   0  0  0  0  0  0  0  0  0  0  0  0
    7.0468    2.0262    0.0000 H   0  0  0  0  0  0  0  0  0  0  0  0
    7.0468   -1.2138    0.0000 H   0  0  0  0  0  0  0  0  0  0  0  0
   10.2826   -5.0791    0.0000 H   0  0  0  0  0  0  0  0  0  0  0  0
   12.7131   -3.7130    0.0000 H   0  0  0  0  0  0  0  0  0  0  0  0
   11.9278   -1.8546    0.0000 H   0  0  0  0  0  0  0  0  0  0  0  0
   10.5343   -1.0284    0.0000 H   0  0  0  0  0  0  0  0  0  0  0  0
   11.6389   -5.9124    0.0000 H   0  0  0  0  0  0  0  0  0  0  0  0
   12.4831   -6.1492    0.0000 H   0  0  0  0  0  0  0  0  0  0  0  0
   12.7198   -5.3049    0.0000 H   0  0  0  0  0  0  0  0  0  0  0  0
   10.2485    1.2391    0.0000 H   0  0  0  0  0  0  0  0  0  0  0  0
    4.6947   -1.5938    0.0000 H   0  0  0  0  0  0  0  0  0  0  0  0
    5.3147   -2.2138    0.0000 H   0  0  0  0  0  0  0  0  0  0  0  0
    5.9347   -1.5938    0.0000 H   0  0  0  0  0  0  0  0  0  0  0  0
  1 27  1  0  0  0  0
  2 15  1  0  0  0  0
  2 16  1  0  0  0  0
  3 26  1  0  0  0  0
  3 28  1  0  0  0  0
  4 17  1  0  0  0  0
  4 33  1  0  0  0  0
  5  9  1  0  0  0  0
  5 10  1  0  0  0  0
  5 13  1  0  0  0  0
  6 22  1  0  0  0  0
  6 24  1  0  0  0  0
  6 51  1  0  0  0  0
  7 20  1  0  0  0  0
  7 32  2  0  0  0  0
  8 26  2  0  0  0  0
  8 32  1  0  0  0  0
  9 11  1  0  0  0  0
  9 36  1  0  0  0  0
  9 37  1  0  0  0  0
 10 12  1  0  0  0  0
 10 34  1  0  0  0  0
 10 35  1  0  0  0  0
 11 12  1  0  0  0  0
 11 40  1  0  0  0  0
 11 41  1  0  0  0  0
 12 38  1  0  0  0  0
 12 39  1  0  0  0  0
 13 14  1  0  0  0  0
 13 42  1  0  0  0  0
 13 43  1  0  0  0  0
 14 15  1  0  0  0  0
 14 44  1  0  0  0  0
 14 45  1  0  0  0  0
 15 46  1  0  0  0  0
 15 47  1  0  0  0  0
 16 17  2  0  0  0  0
 16 18  1  0  0  0  0
 17 23  1  0  0  0  0
 18 20  2  0  0  0  0
 18 48  1  0  0  0  0
 19 20  1  0  0  0  0
 19 23  2  0  0  0  0
 19 26  1  0  0  0  0
 21 22  2  0  0  0  0
 21 25  1  0  0  0  0
 21 27  1  0  0  0  0
 22 29  1  0  0  0  0
 23 49  1  0  0  0  0
 24 25  2  0  0  0  0
 24 31  1  0  0  0  0
 25 50  1  0  0  0  0
 27 28  2  0  0  0  0
 28 30  1  0  0  0  0
 29 30  2  0  0  0  0
 29 52  1  0  0  0  0
 30 53  1  0  0  0  0
 31 54  1  0  0  0  0
 31 55  1  0  0  0  0
 31 56  1  0  0  0  0
 32 57  1  0  0  0  0
 33 58  1  0  0  0  0
 33 59  1  0  0  0  0
 33 60  1  0  0  0  0
M  END
>  <PUBCHEM_COMPOUND_CID>
9933475

>  <PUBCHEM_COMPOUND_CANONICALIZED>
1

>  <PUBCHEM_CACTVS_COMPLEXITY>
625

>  <PUBCHEM_CACTVS_HBOND_ACCEPTOR>
7

>  <PUBCHEM_CACTVS_HBOND_DONOR>
1

>  <PUBCHEM_CACTVS_ROTATABLE_BOND>
8

>  <PUBCHEM_CACTVS_SUBSKEYS>
AAADceB7sQAAAAAAAAAAAAAAAAAAAWLAAAA8YIAAAAAAAFix/gAAHwAQAAAADAzhng431vfJlACgAyRjZACCiCkxIqAJ2SA+7JiNLuLE+duOPCru0BvK6Cfw8L8OIEABAgACQABAgAIEAASAAAAAAAAAAA==

>  <PUBCHEM_IUPAC_OPENEYE_NAME>
4-[(4-fluoro-2-methyl-1H-indol-5-yl)oxy]-6-methoxy-7-(3-pyrrolidin-1-ylpropoxy)quinazoline

>  <PUBCHEM_IUPAC_CAS_NAME>
4-[(4-fluoro-2-methyl-1H-indol-5-yl)oxy]-6-methoxy-7-[3-(1-pyrrolidinyl)propoxy]quinazoline

>  <PUBCHEM_IUPAC_NAME>
4-[(4-fluoro-2-methyl-1H-indol-5-yl)oxy]-6-methoxy-7-(3-pyrrolidin-1-ylpropoxy)quinazoline

>  <PUBCHEM_IUPAC_SYSTEMATIC_NAME>
4-[(4-fluoranyl-2-methyl-1H-indol-5-yl)oxy]-6-methoxy-7-(3-pyrrolidin-1-ylpropoxy)quinazoline

>  <PUBCHEM_IUPAC_TRADITIONAL_NAME>
4-[(4-fluoro-2-methyl-1H-indol-5-yl)oxy]-6-methoxy-7-(3-pyrrolidinopropoxy)quinazoline

>  <PUBCHEM_IUPAC_INCHI>
InChI=1S/C25H27FN4O3/c1-16-12-17-19(29-16)6-7-21(24(17)26)33-25-18-13-22(31-2)23(14-20(18)27-15-28-25)32-11-5-10-30-8-3-4-9-30/h6-7,12-15,29H,3-5,8-11H2,1-2H3

>  <PUBCHEM_IUPAC_INCHIKEY>
XXJWYDDUDKYVKI-UHFFFAOYSA-N

>  <PUBCHEM_XLOGP3_AA>
4.9

>  <PUBCHEM_EXACT_MASS>
450.206719

>  <PUBCHEM_MOLECULAR_FORMULA>
C25H27FN4O3

>  <PUBCHEM_MOLECULAR_WEIGHT>
450.505283

>  <PUBCHEM_OPENEYE_CAN_SMILES>
CC1=CC2=C(N1)C=CC(=C2F)OC3=NC=NC4=CC(=C(C=C43)OC)OCCCN5CCCC5

>  <PUBCHEM_OPENEYE_ISO_SMILES>
CC1=CC2=C(N1)C=CC(=C2F)OC3=NC=NC4=CC(=C(C=C43)OC)OCCCN5CCCC5

>  <PUBCHEM_CACTVS_TPSA>
72.5

>  <PUBCHEM_MONOISOTOPIC_WEIGHT>
450.206719

>  <PUBCHEM_TOTAL_CHARGE>
0

>  <PUBCHEM_HEAVY_ATOM_COUNT>
33

>  <PUBCHEM_ATOM_DEF_STEREO_COUNT>
0

>  <PUBCHEM_ATOM_UDEF_STEREO_COUNT>
0

>  <PUBCHEM_BOND_DEF_STEREO_COUNT>
0

>  <PUBCHEM_BOND_UDEF_STEREO_COUNT>
0

>  <PUBCHEM_ISOTOPIC_ATOM_COUNT>
0

>  <PUBCHEM_COMPONENT_COUNT>
1

>  <PUBCHEM_CACTVS_TAUTO_COUNT>
1

>  <PUBCHEM_COORDINATE_TYPE>
1
5
255

>  <PUBCHEM_BONDANNOTATIONS>
16  17  8
16  18  8
17  23  8
18  20  8
19  20  8
19  23  8
19  26  8
21  22  8
21  25  8
21  27  8
22  29  8
24  25  8
27  28  8
28  30  8
29  30  8
6  22  8
6  24  8
7  20  8
7  32  8
8  26  8
8  32  8

$$$$
