
 OpenBabel11121517312D

 55 59  0  0  0  0  0  0  0  0999 V2000
    7.3301   -2.5000    0.0000 F   0  0  0  0  0  0  0  0  0  0  0  0
    3.8660   -3.5000    0.0000 O   0  0  0  0  0  0  0  0  0  0  0  0
    7.3301    0.5000    0.0000 O   0  0  0  0  0  0  0  0  0  0  0  0
   10.7942    3.5000    0.0000 O   0  0  0  0  0  0  0  0  0  0  0  0
    4.7320   -2.0000    0.0000 N   0  0  0  0  0  0  0  0  0  0  0  0
    6.4641   -1.0000    0.0000 N   0  0  0  0  0  0  0  0  0  0  0  0
    9.9282    1.0000    0.0000 N   0  0  0  0  0  0  0  0  0  0  0  0
    9.9282    2.0000    0.0000 N   0  0  0  0  0  0  0  0  0  0  0  0
    3.0000   -2.0000    0.0000 C   0  0  0  0  0  0  0  0  0  0  0  0
    2.5000   -1.1340    0.0000 C   0  0  0  0  0  0  0  0  0  0  0  0
    2.0000   -2.0000    0.0000 C   0  0  0  0  0  0  0  0  0  0  0  0
    3.8660   -2.5000    0.0000 C   0  0  0  0  0  0  0  0  0  0  0  0
    4.7320   -1.0000    0.0000 C   0  0  0  0  0  0  0  0  0  0  0  0
    5.5981   -2.5000    0.0000 C   0  0  0  0  0  0  0  0  0  0  0  0
    5.5981   -0.5000    0.0000 C   0  0  0  0  0  0  0  0  0  0  0  0
    6.4641   -2.0000    0.0000 C   0  0  0  0  0  0  0  0  0  0  0  0
    7.3301   -0.5000    0.0000 C   0  0  0  0  0  0  0  0  0  0  0  0
    8.1962   -1.0000    0.0000 C   0  0  0  0  0  0  0  0  0  0  0  0
    9.0622   -0.5000    0.0000 C   0  0  0  0  0  0  0  0  0  0  0  0
    9.9282   -1.0000    0.0000 C   0  0  0  0  0  0  0  0  0  0  0  0
    8.1962   -2.0000    0.0000 C   0  0  0  0  0  0  0  0  0  0  0  0
   10.7942   -0.5000    0.0000 C   0  0  0  0  0  0  0  0  0  0  0  0
    9.9282   -2.0000    0.0000 C   0  0  0  0  0  0  0  0  0  0  0  0
    9.0622   -2.5000    0.0000 C   0  0  0  0  0  0  0  0  0  0  0  0
   10.7942    0.5000    0.0000 C   0  0  0  0  0  0  0  0  0  0  0  0
   11.6603    1.0000    0.0000 C   0  0  0  0  0  0  0  0  0  0  0  0
   11.6603    2.0000    0.0000 C   0  0  0  0  0  0  0  0  0  0  0  0
   12.5542    0.4653    0.0000 C   0  0  0  0  0  0  0  0  0  0  0  0
   10.7942    2.5000    0.0000 C   0  0  0  0  0  0  0  0  0  0  0  0
   12.5542    2.5347    0.0000 C   0  0  0  0  0  0  0  0  0  0  0  0
   13.4603    0.9792    0.0000 C   0  0  0  0  0  0  0  0  0  0  0  0
   13.4603    2.0208    0.0000 C   0  0  0  0  0  0  0  0  0  0  0  0
    2.8395   -2.5989    0.0000 H   0  0  0  0  0  0  0  0  0  0  0  0
    2.9750   -0.7354    0.0000 H   0  0  0  0  0  0  0  0  0  0  0  0
    2.0250   -0.7354    0.0000 H   0  0  0  0  0  0  0  0  0  0  0  0
    1.4174   -1.7880    0.0000 H   0  0  0  0  0  0  0  0  0  0  0  0
    1.8923   -2.6106    0.0000 H   0  0  0  0  0  0  0  0  0  0  0  0
    5.1996   -2.9750    0.0000 H   0  0  0  0  0  0  0  0  0  0  0  0
    5.9966   -2.9750    0.0000 H   0  0  0  0  0  0  0  0  0  0  0  0
    4.5200   -0.4174    0.0000 H   0  0  0  0  0  0  0  0  0  0  0  0
    4.1215   -1.1077    0.0000 H   0  0  0  0  0  0  0  0  0  0  0  0
    6.6762   -2.5826    0.0000 H   0  0  0  0  0  0  0  0  0  0  0  0
    7.0747   -1.8923    0.0000 H   0  0  0  0  0  0  0  0  0  0  0  0
    5.9966   -0.0251    0.0000 H   0  0  0  0  0  0  0  0  0  0  0  0
    5.1996   -0.0251    0.0000 H   0  0  0  0  0  0  0  0  0  0  0  0
    9.0622    0.1200    0.0000 H   0  0  0  0  0  0  0  0  0  0  0  0
   11.0063   -1.0826    0.0000 H   0  0  0  0  0  0  0  0  0  0  0  0
   11.4048   -0.3923    0.0000 H   0  0  0  0  0  0  0  0  0  0  0  0
   10.4651   -2.3100    0.0000 H   0  0  0  0  0  0  0  0  0  0  0  0
    9.0622   -3.1200    0.0000 H   0  0  0  0  0  0  0  0  0  0  0  0
   12.5470   -0.1546    0.0000 H   0  0  0  0  0  0  0  0  0  0  0  0
   12.5470    3.1546    0.0000 H   0  0  0  0  0  0  0  0  0  0  0  0
    9.3913    2.3100    0.0000 H   0  0  0  0  0  0  0  0  0  0  0  0
   13.9960    0.6671    0.0000 H   0  0  0  0  0  0  0  0  0  0  0  0
   13.9960    2.3329    0.0000 H   0  0  0  0  0  0  0  0  0  0  0  0
  1 21  1  0  0  0  0
  2 12  2  0  0  0  0
  3 17  2  0  0  0  0
  4 29  2  0  0  0  0
  5 12  1  0  0  0  0
  5 13  1  0  0  0  0
  5 14  1  0  0  0  0
  6 15  1  0  0  0  0
  6 16  1  0  0  0  0
  6 17  1  0  0  0  0
  7  8  1  0  0  0  0
  7 25  2  0  0  0  0
  8 29  1  0  0  0  0
  8 53  1  0  0  0  0
  9 10  1  0  0  0  0
  9 11  1  0  0  0  0
  9 12  1  0  0  0  0
  9 33  1  0  0  0  0
 10 11  1  0  0  0  0
 10 34  1  0  0  0  0
 10 35  1  0  0  0  0
 11 36  1  0  0  0  0
 11 37  1  0  0  0  0
 13 15  1  0  0  0  0
 13 40  1  0  0  0  0
 13 41  1  0  0  0  0
 14 16  1  0  0  0  0
 14 38  1  0  0  0  0
 14 39  1  0  0  0  0
 15 44  1  0  0  0  0
 15 45  1  0  0  0  0
 16 42  1  0  0  0  0
 16 43  1  0  0  0  0
 17 18  1  0  0  0  0
 18 19  1  0  0  0  0
 18 21  2  0  0  0  0
 19 20  2  0  0  0  0
 19 46  1  0  0  0  0
 20 22  1  0  0  0  0
 20 23  1  0  0  0  0
 21 24  1  0  0  0  0
 22 25  1  0  0  0  0
 22 47  1  0  0  0  0
 22 48  1  0  0  0  0
 23 24  2  0  0  0  0
 23 49  1  0  0  0  0
 24 50  1  0  0  0  0
 25 26  1  0  0  0  0
 26 27  1  0  0  0  0
 26 28  2  0  0  0  0
 27 29  1  0  0  0  0
 27 30  2  0  0  0  0
 28 31  1  0  0  0  0
 28 51  1  0  0  0  0
 30 32  1  0  0  0  0
 30 52  1  0  0  0  0
 31 32  2  0  0  0  0
 31 54  1  0  0  0  0
 32 55  1  0  0  0  0
M  END
>  <PUBCHEM_COMPOUND_CID>
23725625

>  <PUBCHEM_COMPOUND_CANONICALIZED>
1

>  <PUBCHEM_CACTVS_COMPLEXITY>
790

>  <PUBCHEM_CACTVS_HBOND_ACCEPTOR>
5

>  <PUBCHEM_CACTVS_HBOND_DONOR>
1

>  <PUBCHEM_CACTVS_ROTATABLE_BOND>
4

>  <PUBCHEM_CACTVS_SUBSKEYS>
AAADceB7sQAAAAAAAAAAAAAAGAAAAAAAAAA8YIEAAAAAAACBQAAAHwAYAAAADQjBmAwwAINiAACoAyFyEACSAAAkAAAaiAE4BNgIYLKAlRGUIQhgjgCIiYcYiMCOgAACAAAQAAAAAAQAACAAAAAAAAAAAA==

>  <PUBCHEM_IUPAC_OPENEYE_NAME>
4-[[3-[4-(cyclopropanecarbonyl)piperazine-1-carbonyl]-4-fluoro-phenyl]methyl]-2H-phthalazin-1-one

>  <PUBCHEM_IUPAC_CAS_NAME>
4-[[3-[[4-[cyclopropyl(oxo)methyl]-1-piperazinyl]-oxomethyl]-4-fluorophenyl]methyl]-2H-phthalazin-1-one

>  <PUBCHEM_IUPAC_NAME>
4-[[3-[4-(cyclopropanecarbonyl)piperazine-1-carbonyl]-4-fluorophenyl]methyl]-2H-phthalazin-1-one

>  <PUBCHEM_IUPAC_SYSTEMATIC_NAME>
4-[[3-(4-cyclopropylcarbonylpiperazin-1-yl)carbonyl-4-fluoranyl-phenyl]methyl]-2H-phthalazin-1-one

>  <PUBCHEM_IUPAC_TRADITIONAL_NAME>
4-[3-[4-(cyclopropanecarbonyl)piperazine-1-carbonyl]-4-fluoro-benzyl]-2H-phthalazin-1-one

>  <PUBCHEM_IUPAC_INCHI>
InChI=1S/C24H23FN4O3/c25-20-8-5-15(14-21-17-3-1-2-4-18(17)22(30)27-26-21)13-19(20)24(32)29-11-9-28(10-12-29)23(31)16-6-7-16/h1-5,8,13,16H,6-7,9-12,14H2,(H,27,30)

>  <PUBCHEM_IUPAC_INCHIKEY>
FDLYAMZZIXQODN-UHFFFAOYSA-N

>  <PUBCHEM_XLOGP3_AA>
1.9

>  <PUBCHEM_EXACT_MASS>
434.175419

>  <PUBCHEM_MOLECULAR_FORMULA>
C24H23FN4O3

>  <PUBCHEM_MOLECULAR_WEIGHT>
434.462823

>  <PUBCHEM_OPENEYE_CAN_SMILES>
C1CC1C(=O)N2CCN(CC2)C(=O)C3=C(C=CC(=C3)CC4=NNC(=O)C5=CC=CC=C54)F

>  <PUBCHEM_OPENEYE_ISO_SMILES>
C1CC1C(=O)N2CCN(CC2)C(=O)C3=C(C=CC(=C3)CC4=NNC(=O)C5=CC=CC=C54)F

>  <PUBCHEM_CACTVS_TPSA>
82.1

>  <PUBCHEM_MONOISOTOPIC_WEIGHT>
434.175419

>  <PUBCHEM_TOTAL_CHARGE>
0

>  <PUBCHEM_HEAVY_ATOM_COUNT>
32

>  <PUBCHEM_ATOM_DEF_STEREO_COUNT>
0

>  <PUBCHEM_ATOM_UDEF_STEREO_COUNT>
0

>  <PUBCHEM_BOND_DEF_STEREO_COUNT>
0

>  <PUBCHEM_BOND_UDEF_STEREO_COUNT>
0

>  <PUBCHEM_ISOTOPIC_ATOM_COUNT>
0

>  <PUBCHEM_COMPONENT_COUNT>
1

>  <PUBCHEM_CACTVS_TAUTO_COUNT>
2

>  <PUBCHEM_COORDINATE_TYPE>
1
5
255

>  <PUBCHEM_BONDANNOTATIONS>
18  19  8
18  21  8
19  20  8
20  23  8
21  24  8
23  24  8
25  26  8
26  27  8
26  28  8
27  29  8
27  30  8
28  31  8
30  32  8
31  32  8
7  25  8
7  8  8
8  29  8

$$$$
