
 OpenBabel11121517312D

 72 77  0  0  1  0  0  0  0  0999 V2000
   10.7262   -0.9601    0.0000 S   0  0  0  0  0  0  0  0  0  0  0  0
    2.8602   -1.5010    0.0000 O   0  0  0  0  0  0  0  0  0  0  0  0
   15.9038    3.1143    0.0000 O   0  0  0  0  0  0  0  0  0  0  0  0
   13.3348    0.5844    0.0000 O   0  0  0  0  0  0  0  0  0  0  0  0
    6.3243   -1.4876    0.0000 O   0  0  0  0  0  0  0  0  0  0  0  0
   10.7196    2.0543    0.0000 O   0  0  0  0  0  0  0  0  0  0  0  0
    4.5961   -2.4943    0.0000 N   0  0  0  0  0  0  0  0  0  0  0  0
    7.1961   -2.9843    0.0000 N   0  0  0  0  0  0  0  0  0  0  0  0
   14.1835    2.0944    0.0000 N   0  0  0  0  0  0  0  0  0  0  0  0
    4.5923   -1.4943    0.0000 C   0  0  0  0  0  0  0  0  0  0  0  0
    3.7320   -2.9976    0.0000 C   0  0  0  0  0  0  0  0  0  0  0  0
    2.8641   -2.5010    0.0000 C   0  0  2  0  0  0  0  0  0  0  0  0
    3.7243   -0.9976    0.0000 C   0  0  1  0  0  0  0  0  0  0  0  0
    5.4641   -2.9910    0.0000 C   0  0  0  0  0  0  0  0  0  0  0  0
    3.7205    0.0023    0.0000 C   0  0  0  0  0  0  0  0  0  0  0  0
    2.0000   -3.0043    0.0000 C   0  0  0  0  0  0  0  0  0  0  0  0
    6.3282   -2.4876    0.0000 C   0  0  0  0  0  0  0  0  0  0  0  0
   10.7262   -2.9601    0.0000 C   0  0  0  0  0  0  0  0  0  0  0  0
    9.8602   -2.4601    0.0000 C   0  0  0  0  0  0  0  0  0  0  0  0
   11.5923   -2.4601    0.0000 C   0  0  0  0  0  0  0  0  0  0  0  0
    8.0602   -2.4809    0.0000 C   0  0  0  0  0  0  0  0  0  0  0  0
   14.1719    3.0943    0.0000 C   0  0  0  0  0  0  0  0  0  0  0  0
   15.0552    1.6044    0.0000 C   0  0  0  0  0  0  0  0  0  0  0  0
   11.5923   -1.4601    0.0000 C   0  0  0  0  0  0  0  0  0  0  0  0
    9.8602   -1.4601    0.0000 C   0  0  0  0  0  0  0  0  0  0  0  0
    8.9663   -2.9948    0.0000 C   0  0  0  0  0  0  0  0  0  0  0  0
   12.4862   -0.9255    0.0000 C   0  0  0  0  0  0  0  0  0  0  0  0
   15.0321    3.6043    0.0000 C   0  0  0  0  0  0  0  0  0  0  0  0
   15.9154    2.1144    0.0000 C   0  0  0  0  0  0  0  0  0  0  0  0
   13.3233    1.5844    0.0000 C   0  0  0  0  0  0  0  0  0  0  0  0
   12.4746    0.0745    0.0000 C   0  0  0  0  0  0  0  0  0  0  0  0
    8.0602   -1.4393    0.0000 C   0  0  0  0  0  0  0  0  0  0  0  0
    8.9663   -0.9255    0.0000 C   0  0  0  0  0  0  0  0  0  0  0  0
   12.4862   -2.9948    0.0000 C   0  0  0  0  0  0  0  0  0  0  0  0
   13.3923   -1.4393    0.0000 C   0  0  0  0  0  0  0  0  0  0  0  0
   13.3923   -2.4809    0.0000 C   0  0  0  0  0  0  0  0  0  0  0  0
   12.4515    2.0743    0.0000 C   0  0  0  0  0  0  0  0  0  0  0  0
   11.6029    0.5644    0.0000 C   0  0  0  0  0  0  0  0  0  0  0  0
   11.5913    1.5643    0.0000 C   0  0  0  0  0  0  0  0  0  0  0  0
    3.3353   -3.4741    0.0000 H   0  0  0  0  0  0  0  0  0  0  0  0
    4.1324   -3.4710    0.0000 H   0  0  0  0  0  0  0  0  0  0  0  0
    5.2033   -1.5996    0.0000 H   0  0  0  0  0  0  0  0  0  0  0  0
    4.8021   -0.9109    0.0000 H   0  0  0  0  0  0  0  0  0  0  0  0
    2.3260   -2.1930    0.0000 H   0  0  0  0  0  0  0  0  0  0  0  0
    3.1862   -0.6897    0.0000 H   0  0  0  0  0  0  0  0  0  0  0  0
    5.0674   -3.4674    0.0000 H   0  0  0  0  0  0  0  0  0  0  0  0
    5.8644   -3.4644    0.0000 H   0  0  0  0  0  0  0  0  0  0  0  0
    4.3405    0.0047    0.0000 H   0  0  0  0  0  0  0  0  0  0  0  0
    1.6879   -2.4686    0.0000 H   0  0  0  0  0  0  0  0  0  0  0  0
    3.7181    0.6223    0.0000 H   0  0  0  0  0  0  0  0  0  0  0  0
    3.1005    0.0000    0.0000 H   0  0  0  0  0  0  0  0  0  0  0  0
    1.4643   -3.3164    0.0000 H   0  0  0  0  0  0  0  0  0  0  0  0
    2.3121   -3.5400    0.0000 H   0  0  0  0  0  0  0  0  0  0  0  0
   10.3277   -3.4351    0.0000 H   0  0  0  0  0  0  0  0  0  0  0  0
   11.1248   -3.4351    0.0000 H   0  0  0  0  0  0  0  0  0  0  0  0
    7.1985   -3.6043    0.0000 H   0  0  0  0  0  0  0  0  0  0  0  0
   13.9531    3.6744    0.0000 H   0  0  0  0  0  0  0  0  0  0  0  0
   14.6622    1.1249    0.0000 H   0  0  0  0  0  0  0  0  0  0  0  0
   15.4592    1.1341    0.0000 H   0  0  0  0  0  0  0  0  0  0  0  0
   13.5626    2.9796    0.0000 H   0  0  0  0  0  0  0  0  0  0  0  0
    8.9734   -3.6148    0.0000 H   0  0  0  0  0  0  0  0  0  0  0  0
   16.1342    1.5343    0.0000 H   0  0  0  0  0  0  0  0  0  0  0  0
   16.5247    2.2291    0.0000 H   0  0  0  0  0  0  0  0  0  0  0  0
   15.4251    4.0838    0.0000 H   0  0  0  0  0  0  0  0  0  0  0  0
   14.6281    4.0746    0.0000 H   0  0  0  0  0  0  0  0  0  0  0  0
    7.5245   -1.1272    0.0000 H   0  0  0  0  0  0  0  0  0  0  0  0
    8.9734   -0.3055    0.0000 H   0  0  0  0  0  0  0  0  0  0  0  0
   12.4790   -3.6148    0.0000 H   0  0  0  0  0  0  0  0  0  0  0  0
   13.9280   -1.1272    0.0000 H   0  0  0  0  0  0  0  0  0  0  0  0
   13.9280   -2.7930    0.0000 H   0  0  0  0  0  0  0  0  0  0  0  0
   12.4443    2.6943    0.0000 H   0  0  0  0  0  0  0  0  0  0  0  0
   11.0696    0.2482    0.0000 H   0  0  0  0  0  0  0  0  0  0  0  0
  1 24  1  0  0  0  0
  1 25  1  0  0  0  0
  2 12  1  0  0  0  0
  2 13  1  0  0  0  0
  3 28  1  0  0  0  0
  3 29  1  0  0  0  0
  4 30  1  0  0  0  0
  4 31  1  0  0  0  0
  5 17  2  0  0  0  0
  6 39  2  0  0  0  0
  7 10  1  0  0  0  0
  7 11  1  0  0  0  0
  7 14  1  0  0  0  0
  8 17  1  0  0  0  0
  8 21  1  0  0  0  0
  8 56  1  0  0  0  0
  9 22  1  0  0  0  0
  9 23  1  0  0  0  0
  9 30  1  0  0  0  0
 10 13  1  0  0  0  0
 10 42  1  0  0  0  0
 10 43  1  0  0  0  0
 11 12  1  0  0  0  0
 11 40  1  0  0  0  0
 11 41  1  0  0  0  0
 12 16  1  0  0  0  0
 12 44  1  1  0  0  0
 13 15  1  0  0  0  0
 13 45  1  1  0  0  0
 14 17  1  0  0  0  0
 14 46  1  0  0  0  0
 14 47  1  0  0  0  0
 15 48  1  0  0  0  0
 15 50  1  0  0  0  0
 15 51  1  0  0  0  0
 16 49  1  0  0  0  0
 16 52  1  0  0  0  0
 16 53  1  0  0  0  0
 18 19  1  0  0  0  0
 18 20  1  0  0  0  0
 18 54  1  0  0  0  0
 18 55  1  0  0  0  0
 19 25  2  0  0  0  0
 19 26  1  0  0  0  0
 20 24  2  0  0  0  0
 20 34  1  0  0  0  0
 21 26  2  0  0  0  0
 21 32  1  0  0  0  0
 22 28  1  0  0  0  0
 22 57  1  0  0  0  0
 22 60  1  0  0  0  0
 23 29  1  0  0  0  0
 23 58  1  0  0  0  0
 23 59  1  0  0  0  0
 24 27  1  0  0  0  0
 25 33  1  0  0  0  0
 26 61  1  0  0  0  0
 27 31  1  0  0  0  0
 27 35  2  0  0  0  0
 28 64  1  0  0  0  0
 28 65  1  0  0  0  0
 29 62  1  0  0  0  0
 29 63  1  0  0  0  0
 30 37  2  0  0  0  0
 31 38  2  0  0  0  0
 32 33  2  0  0  0  0
 32 66  1  0  0  0  0
 33 67  1  0  0  0  0
 34 36  2  0  0  0  0
 34 68  1  0  0  0  0
 35 36  1  0  0  0  0
 35 69  1  0  0  0  0
 36 70  1  0  0  0  0
 37 39  1  0  0  0  0
 37 71  1  0  0  0  0
 38 39  1  0  0  0  0
 38 72  1  0  0  0  0
M  END
>  <PUBCHEM_COMPOUND_CID>
15953870

>  <PUBCHEM_COMPOUND_CANONICALIZED>
1

>  <PUBCHEM_CACTVS_COMPLEXITY>
972

>  <PUBCHEM_CACTVS_HBOND_ACCEPTOR>
8

>  <PUBCHEM_CACTVS_HBOND_DONOR>
1

>  <PUBCHEM_CACTVS_ROTATABLE_BOND>
5

>  <PUBCHEM_CACTVS_SUBSKEYS>
AAADcfB7OABAAAAAAAAAAAAAAAAAAAAAAAA8eJECAAAAAACRQAAAHgQQAAAADBzh2AYywYPABAiIAqVSUACCCAAhKhAIiBiIbMgKZiLgsbmfMAhk1AH46UeQwOAOAAQCQAAEAAAACASAAAgAAAAAAAAAAA==

>  <PUBCHEM_IUPAC_OPENEYE_NAME>
2-[(2S,6R)-2,6-dimethylmorpholin-4-yl]-N-[5-(6-morpholino-4-oxo-pyran-2-yl)-9H-thioxanthen-2-yl]acetamide

>  <PUBCHEM_IUPAC_CAS_NAME>
2-[(2S,6R)-2,6-dimethyl-4-morpholinyl]-N-[5-[6-(4-morpholinyl)-4-oxo-2-pyranyl]-9H-thioxanthen-2-yl]acetamide

>  <PUBCHEM_IUPAC_NAME>
2-[(2S,6R)-2,6-dimethylmorpholin-4-yl]-N-[5-(6-morpholin-4-yl-4-oxopyran-2-yl)-9H-thioxanthen-2-yl]acetamide

>  <PUBCHEM_IUPAC_SYSTEMATIC_NAME>
2-[(2S,6R)-2,6-dimethylmorpholin-4-yl]-N-[5-(6-morpholin-4-yl-4-oxidanylidene-pyran-2-yl)-9H-thioxanthen-2-yl]ethanamide

>  <PUBCHEM_IUPAC_TRADITIONAL_NAME>
2-[(2S,6R)-2,6-dimethylmorpholino]-N-[5-(4-keto-6-morpholino-pyran-2-yl)-9H-thioxanthen-2-yl]acetamide

>  <PUBCHEM_IUPAC_INCHI>
InChI=1S/C30H33N3O5S/c1-19-16-32(17-20(2)37-19)18-28(35)31-23-6-7-27-22(13-23)12-21-4-3-5-25(30(21)39-27)26-14-24(34)15-29(38-26)33-8-10-36-11-9-33/h3-7,13-15,19-20H,8-12,16-18H2,1-2H3,(H,31,35)/t19-,20+

>  <PUBCHEM_IUPAC_INCHIKEY>
SCELLOWTHJGVIC-BGYRXZFFSA-N

>  <PUBCHEM_XLOGP3_AA>
3.5

>  <PUBCHEM_EXACT_MASS>
547.214092

>  <PUBCHEM_MOLECULAR_FORMULA>
C30H33N3O5S

>  <PUBCHEM_MOLECULAR_WEIGHT>
547.66512

>  <PUBCHEM_OPENEYE_CAN_SMILES>
CC1CN(CC(O1)C)CC(=O)NC2=CC3=C(C=C2)SC4=C(C=CC=C4C3)C5=CC(=O)C=C(O5)N6CCOCC6

>  <PUBCHEM_OPENEYE_ISO_SMILES>
C[C@@H]1CN(C[C@@H](O1)C)CC(=O)NC2=CC3=C(C=C2)SC4=C(C=CC=C4C3)C5=CC(=O)C=C(O5)N6CCOCC6

>  <PUBCHEM_CACTVS_TPSA>
106

>  <PUBCHEM_MONOISOTOPIC_WEIGHT>
547.214092

>  <PUBCHEM_TOTAL_CHARGE>
0

>  <PUBCHEM_HEAVY_ATOM_COUNT>
39

>  <PUBCHEM_ATOM_DEF_STEREO_COUNT>
2

>  <PUBCHEM_ATOM_UDEF_STEREO_COUNT>
0

>  <PUBCHEM_BOND_DEF_STEREO_COUNT>
0

>  <PUBCHEM_BOND_UDEF_STEREO_COUNT>
0

>  <PUBCHEM_ISOTOPIC_ATOM_COUNT>
0

>  <PUBCHEM_COMPONENT_COUNT>
1

>  <PUBCHEM_CACTVS_TAUTO_COUNT>
3

>  <PUBCHEM_COORDINATE_TYPE>
1
5
255

>  <PUBCHEM_BONDANNOTATIONS>
12  16  6
13  15  6
19  25  8
19  26  8
20  24  8
20  34  8
21  26  8
21  32  8
24  27  8
25  33  8
27  35  8
30  37  8
31  38  8
32  33  8
34  36  8
35  36  8
37  39  8
38  39  8
4  30  8
4  31  8

$$$$
