
 OpenBabel11121517312D

 65 69  0  0  0  0  0  0  0  0999 V2000
    5.4641   -1.8090    0.0000 O   0  0  0  0  0  0  0  0  0  0  0  0
   14.0561   -0.8090    0.0000 O   0  0  0  0  0  0  0  0  0  0  0  0
    7.1962    1.1910    0.0000 O   0  0  0  0  0  0  0  0  0  0  0  0
   12.4725   -0.0043    0.0000 N   0  0  0  0  0  0  0  0  0  0  0  0
   12.4725   -1.6138    0.0000 N   0  0  0  0  0  0  0  0  0  0  0  0
    2.8660   -0.3090    0.0000 N   0  0  0  0  0  0  0  0  0  0  0  0
   10.6603    0.1910    0.0000 N   0  0  0  0  0  0  0  0  0  0  0  0
    9.7942   -1.3090    0.0000 N   0  0  0  0  0  0  0  0  0  0  0  0
    8.9282    0.1910    0.0000 N   0  0  0  0  0  0  0  0  0  0  0  0
   12.7832    0.9462    0.0000 C   0  0  0  0  0  0  0  0  0  0  0  0
   13.7348    1.2536    0.0000 C   0  0  0  0  0  0  0  0  0  0  0  0
   12.1968    1.7563    0.0000 C   0  0  0  0  0  0  0  0  0  0  0  0
   12.7860    2.5643    0.0000 C   0  0  0  0  0  0  0  0  0  0  0  0
   13.7365    2.2536    0.0000 C   0  0  0  0  0  0  0  0  0  0  0  0
   11.5263   -0.3090    0.0000 C   0  0  0  0  0  0  0  0  0  0  0  0
   13.0561   -0.8090    0.0000 C   0  0  0  0  0  0  0  0  0  0  0  0
    4.5981   -1.3090    0.0000 C   0  0  0  0  0  0  0  0  0  0  0  0
   11.5263   -1.3090    0.0000 C   0  0  0  0  0  0  0  0  0  0  0  0
    3.7320   -1.8090    0.0000 C   0  0  0  0  0  0  0  0  0  0  0  0
    4.5981   -0.3090    0.0000 C   0  0  0  0  0  0  0  0  0  0  0  0
    2.8660   -1.3090    0.0000 C   0  0  0  0  0  0  0  0  0  0  0  0
    3.7320    0.1910    0.0000 C   0  0  0  0  0  0  0  0  0  0  0  0
   12.7832   -2.5643    0.0000 C   0  0  0  0  0  0  0  0  0  0  0  0
   10.6603   -1.8090    0.0000 C   0  0  0  0  0  0  0  0  0  0  0  0
    2.0000    0.1910    0.0000 C   0  0  0  0  0  0  0  0  0  0  0  0
    9.7942   -0.3090    0.0000 C   0  0  0  0  0  0  0  0  0  0  0  0
    6.3301   -1.3090    0.0000 C   0  0  0  0  0  0  0  0  0  0  0  0
    8.0622   -0.3090    0.0000 C   0  0  0  0  0  0  0  0  0  0  0  0
    6.3301   -0.3090    0.0000 C   0  0  0  0  0  0  0  0  0  0  0  0
    7.1962   -1.8090    0.0000 C   0  0  0  0  0  0  0  0  0  0  0  0
    7.1962    0.1910    0.0000 C   0  0  0  0  0  0  0  0  0  0  0  0
    8.0622   -1.3090    0.0000 C   0  0  0  0  0  0  0  0  0  0  0  0
    6.3301    1.6910    0.0000 C   0  0  0  0  0  0  0  0  0  0  0  0
   12.1706    0.8503    0.0000 H   0  0  0  0  0  0  0  0  0  0  0  0
   13.8626    0.6469    0.0000 H   0  0  0  0  0  0  0  0  0  0  0  0
   14.3515    1.3174    0.0000 H   0  0  0  0  0  0  0  0  0  0  0  0
   11.7367    2.1719    0.0000 H   0  0  0  0  0  0  0  0  0  0  0  0
   11.7353    1.3422    0.0000 H   0  0  0  0  0  0  0  0  0  0  0  0
   14.3530    2.1877    0.0000 H   0  0  0  0  0  0  0  0  0  0  0  0
   13.8664    2.8598    0.0000 H   0  0  0  0  0  0  0  0  0  0  0  0
   13.0391    3.1302    0.0000 H   0  0  0  0  0  0  0  0  0  0  0  0
   12.2496    2.8752    0.0000 H   0  0  0  0  0  0  0  0  0  0  0  0
    4.5981   -1.9290    0.0000 H   0  0  0  0  0  0  0  0  0  0  0  0
    5.2087   -0.4167    0.0000 H   0  0  0  0  0  0  0  0  0  0  0  0
    4.8101    0.2736    0.0000 H   0  0  0  0  0  0  0  0  0  0  0  0
    3.3335   -2.2840    0.0000 H   0  0  0  0  0  0  0  0  0  0  0  0
    4.1306   -2.2840    0.0000 H   0  0  0  0  0  0  0  0  0  0  0  0
    4.1306    0.6659    0.0000 H   0  0  0  0  0  0  0  0  0  0  0  0
    3.3335    0.6659    0.0000 H   0  0  0  0  0  0  0  0  0  0  0  0
    2.2554   -1.2014    0.0000 H   0  0  0  0  0  0  0  0  0  0  0  0
    2.6540   -1.8916    0.0000 H   0  0  0  0  0  0  0  0  0  0  0  0
   12.1938   -2.7569    0.0000 H   0  0  0  0  0  0  0  0  0  0  0  0
   12.9758   -3.1536    0.0000 H   0  0  0  0  0  0  0  0  0  0  0  0
   13.3725   -2.3717    0.0000 H   0  0  0  0  0  0  0  0  0  0  0  0
   10.6603   -2.4290    0.0000 H   0  0  0  0  0  0  0  0  0  0  0  0
    2.3100    0.7279    0.0000 H   0  0  0  0  0  0  0  0  0  0  0  0
    1.4631    0.5010    0.0000 H   0  0  0  0  0  0  0  0  0  0  0  0
    1.6900   -0.3460    0.0000 H   0  0  0  0  0  0  0  0  0  0  0  0
    8.9282    0.8110    0.0000 H   0  0  0  0  0  0  0  0  0  0  0  0
    5.7932    0.0010    0.0000 H   0  0  0  0  0  0  0  0  0  0  0  0
    7.1962   -2.4290    0.0000 H   0  0  0  0  0  0  0  0  0  0  0  0
    8.5991   -1.6190    0.0000 H   0  0  0  0  0  0  0  0  0  0  0  0
    6.6401    2.2279    0.0000 H   0  0  0  0  0  0  0  0  0  0  0  0
    5.7932    2.0010    0.0000 H   0  0  0  0  0  0  0  0  0  0  0  0
    6.0201    1.1540    0.0000 H   0  0  0  0  0  0  0  0  0  0  0  0
  1 17  1  0  0  0  0
  1 27  1  0  0  0  0
  2 16  2  0  0  0  0
  3 31  1  0  0  0  0
  3 33  1  0  0  0  0
  4 10  1  0  0  0  0
  4 15  1  0  0  0  0
  4 16  1  0  0  0  0
  5 16  1  0  0  0  0
  5 18  1  0  0  0  0
  5 23  1  0  0  0  0
  6 21  1  0  0  0  0
  6 22  1  0  0  0  0
  6 25  1  0  0  0  0
  7 15  2  0  0  0  0
  7 26  1  0  0  0  0
  8 24  1  0  0  0  0
  8 26  2  0  0  0  0
  9 26  1  0  0  0  0
  9 28  1  0  0  0  0
  9 59  1  0  0  0  0
 10 11  1  0  0  0  0
 10 12  1  0  0  0  0
 10 34  1  0  0  0  0
 11 14  1  0  0  0  0
 11 35  1  0  0  0  0
 11 36  1  0  0  0  0
 12 13  1  0  0  0  0
 12 37  1  0  0  0  0
 12 38  1  0  0  0  0
 13 14  1  0  0  0  0
 13 41  1  0  0  0  0
 13 42  1  0  0  0  0
 14 39  1  0  0  0  0
 14 40  1  0  0  0  0
 15 18  1  0  0  0  0
 17 19  1  0  0  0  0
 17 20  1  0  0  0  0
 17 43  1  0  0  0  0
 18 24  2  0  0  0  0
 19 21  1  0  0  0  0
 19 46  1  0  0  0  0
 19 47  1  0  0  0  0
 20 22  1  0  0  0  0
 20 44  1  0  0  0  0
 20 45  1  0  0  0  0
 21 50  1  0  0  0  0
 21 51  1  0  0  0  0
 22 48  1  0  0  0  0
 22 49  1  0  0  0  0
 23 52  1  0  0  0  0
 23 53  1  0  0  0  0
 23 54  1  0  0  0  0
 24 55  1  0  0  0  0
 25 56  1  0  0  0  0
 25 57  1  0  0  0  0
 25 58  1  0  0  0  0
 27 29  2  0  0  0  0
 27 30  1  0  0  0  0
 28 31  2  0  0  0  0
 28 32  1  0  0  0  0
 29 31  1  0  0  0  0
 29 60  1  0  0  0  0
 30 32  2  0  0  0  0
 30 61  1  0  0  0  0
 32 62  1  0  0  0  0
 33 63  1  0  0  0  0
 33 64  1  0  0  0  0
 33 65  1  0  0  0  0
M  END
>  <PUBCHEM_COMPOUND_CID>
56973724

>  <PUBCHEM_COMPOUND_CANONICALIZED>
1

>  <PUBCHEM_CACTVS_COMPLEXITY>
669

>  <PUBCHEM_CACTVS_HBOND_ACCEPTOR>
7

>  <PUBCHEM_CACTVS_HBOND_DONOR>
1

>  <PUBCHEM_CACTVS_ROTATABLE_BOND>
6

>  <PUBCHEM_CACTVS_SUBSKEYS>
AAADcfB7sAAAAAAAAAAAAAAAAAAAAeIAAAA8WIAAAAAAAFgBwAAAHgAQAAAACDzhkgY/9pfIFACoADZndACCiCkxMqAJ2CAvfJiOb6LE+duXPCjv1xfY6CewYAwAAEAACAAAEAAAgAAQAAAgAAAAAAAAAA==

>  <PUBCHEM_IUPAC_OPENEYE_NAME>
9-cyclopentyl-2-[2-methoxy-4-[(1-methyl-4-piperidyl)oxy]anilino]-7-methyl-purin-8-one

>  <PUBCHEM_IUPAC_CAS_NAME>
9-cyclopentyl-2-[2-methoxy-4-[(1-methyl-4-piperidinyl)oxy]anilino]-7-methyl-8-purinone

>  <PUBCHEM_IUPAC_NAME>
9-cyclopentyl-2-[2-methoxy-4-(1-methylpiperidin-4-yl)oxyanilino]-7-methylpurin-8-one

>  <PUBCHEM_IUPAC_SYSTEMATIC_NAME>
9-cyclopentyl-2-[[2-methoxy-4-(1-methylpiperidin-4-yl)oxy-phenyl]amino]-7-methyl-purin-8-one

>  <PUBCHEM_IUPAC_TRADITIONAL_NAME>
9-cyclopentyl-2-[2-methoxy-4-[(1-methyl-4-piperidyl)oxy]anilino]-7-methyl-purin-8-one

>  <PUBCHEM_IUPAC_INCHI>
InChI=1S/C24H32N6O3/c1-28-12-10-17(11-13-28)33-18-8-9-19(21(14-18)32-3)26-23-25-15-20-22(27-23)30(24(31)29(20)2)16-6-4-5-7-16/h8-9,14-17H,4-7,10-13H2,1-3H3,(H,25,26,27)

>  <PUBCHEM_IUPAC_INCHIKEY>
YUKWVHPTFRQHMF-UHFFFAOYSA-N

>  <PUBCHEM_XLOGP3_AA>
3.2

>  <PUBCHEM_EXACT_MASS>
452.253589

>  <PUBCHEM_MOLECULAR_FORMULA>
C24H32N6O3

>  <PUBCHEM_MOLECULAR_WEIGHT>
452.54928

>  <PUBCHEM_OPENEYE_CAN_SMILES>
CN1CCC(CC1)OC2=CC(=C(C=C2)NC3=NC=C4C(=N3)N(C(=O)N4C)C5CCCC5)OC

>  <PUBCHEM_OPENEYE_ISO_SMILES>
CN1CCC(CC1)OC2=CC(=C(C=C2)NC3=NC=C4C(=N3)N(C(=O)N4C)C5CCCC5)OC

>  <PUBCHEM_CACTVS_TPSA>
83.1

>  <PUBCHEM_MONOISOTOPIC_WEIGHT>
452.253589

>  <PUBCHEM_TOTAL_CHARGE>
0

>  <PUBCHEM_HEAVY_ATOM_COUNT>
33

>  <PUBCHEM_ATOM_DEF_STEREO_COUNT>
0

>  <PUBCHEM_ATOM_UDEF_STEREO_COUNT>
0

>  <PUBCHEM_BOND_DEF_STEREO_COUNT>
0

>  <PUBCHEM_BOND_UDEF_STEREO_COUNT>
0

>  <PUBCHEM_ISOTOPIC_ATOM_COUNT>
0

>  <PUBCHEM_COMPONENT_COUNT>
1

>  <PUBCHEM_CACTVS_TAUTO_COUNT>
3

>  <PUBCHEM_COORDINATE_TYPE>
1
5
255

>  <PUBCHEM_BONDANNOTATIONS>
15  18  8
18  24  8
27  29  8
27  30  8
28  31  8
28  32  8
29  31  8
30  32  8
4  15  8
4  16  8
5  16  8
5  18  8
7  15  8
7  26  8
8  24  8
8  26  8

$$$$
