
 OpenBabel11121517312D

 57 61  0  0  0  0  0  0  0  0999 V2000
    3.3426   -2.1263    0.0000 Cl  0  0  0  0  0  0  0  0  0  0  0  0
    9.2136   -0.8890    0.0000 O   0  0  0  0  0  0  0  0  0  0  0  0
    8.4993    2.5007    0.0000 N   0  0  0  0  0  0  0  0  0  0  0  0
    9.4312    5.3522    0.0000 N   0  0  0  0  0  0  0  0  0  0  0  0
    7.2566   -1.3014    0.0000 N   0  0  0  0  0  0  0  0  0  0  0  0
    4.6783   -5.2244    0.0000 N   0  0  0  0  0  0  0  0  0  0  0  0
    5.9674   -2.4582    0.0000 N   0  0  0  0  0  0  0  0  0  0  0  0
    5.6103   -0.7633    0.0000 N   0  0  0  0  0  0  0  0  0  0  0  0
    9.1206    4.4017    0.0000 C   0  0  0  0  0  0  0  0  0  0  0  0
    9.7884    3.6574    0.0000 C   0  0  0  0  0  0  0  0  0  0  0  0
    8.1421    4.1955    0.0000 C   0  0  0  0  0  0  0  0  0  0  0  0
    9.4778    2.7069    0.0000 C   0  0  0  0  0  0  0  0  0  0  0  0
    7.8314    3.2450    0.0000 C   0  0  0  0  0  0  0  0  0  0  0  0
    8.1886    1.5501    0.0000 C   0  0  0  0  0  0  0  0  0  0  0  0
    8.8564    0.8058    0.0000 C   0  0  0  0  0  0  0  0  0  0  0  0
    7.2101    1.3439    0.0000 C   0  0  0  0  0  0  0  0  0  0  0  0
    8.5458   -0.1447    0.0000 C   0  0  0  0  0  0  0  0  0  0  0  0
    6.8994    0.3934    0.0000 C   0  0  0  0  0  0  0  0  0  0  0  0
    7.5673   -0.3509    0.0000 C   0  0  0  0  0  0  0  0  0  0  0  0
    4.6783   -3.6149    0.0000 C   0  0  0  0  0  0  0  0  0  0  0  0
    3.7320   -3.9196    0.0000 C   0  0  0  0  0  0  0  0  0  0  0  0
    3.7320   -4.9196    0.0000 C   0  0  0  0  0  0  0  0  0  0  0  0
    6.2781   -1.5076    0.0000 C   0  0  0  0  0  0  0  0  0  0  0  0
    4.9889   -2.6644    0.0000 C   0  0  0  0  0  0  0  0  0  0  0  0
    5.2619   -4.4196    0.0000 C   0  0  0  0  0  0  0  0  0  0  0  0
    2.8660   -3.4196    0.0000 C   0  0  0  0  0  0  0  0  0  0  0  0
    2.8660   -5.4196    0.0000 C   0  0  0  0  0  0  0  0  0  0  0  0
   10.1921   -0.6828    0.0000 C   0  0  0  0  0  0  0  0  0  0  0  0
    4.3211   -1.9201    0.0000 C   0  0  0  0  0  0  0  0  0  0  0  0
    2.0000   -3.9196    0.0000 C   0  0  0  0  0  0  0  0  0  0  0  0
    2.0000   -4.9196    0.0000 C   0  0  0  0  0  0  0  0  0  0  0  0
    4.6318   -0.9696    0.0000 C   0  0  0  0  0  0  0  0  0  0  0  0
    9.7272    4.5296    0.0000 H   0  0  0  0  0  0  0  0  0  0  0  0
    8.1215    4.8151    0.0000 H   0  0  0  0  0  0  0  0  0  0  0  0
    7.5283    4.2828    0.0000 H   0  0  0  0  0  0  0  0  0  0  0  0
   10.3353    3.3654    0.0000 H   0  0  0  0  0  0  0  0  0  0  0  0
   10.1710    4.1453    0.0000 H   0  0  0  0  0  0  0  0  0  0  0  0
    7.2845    3.5370    0.0000 H   0  0  0  0  0  0  0  0  0  0  0  0
    7.4489    2.7571    0.0000 H   0  0  0  0  0  0  0  0  0  0  0  0
    9.4983    2.0872    0.0000 H   0  0  0  0  0  0  0  0  0  0  0  0
   10.0916    2.6195    0.0000 H   0  0  0  0  0  0  0  0  0  0  0  0
   10.0379    5.4801    0.0000 H   0  0  0  0  0  0  0  0  0  0  0  0
    9.0172    5.8137    0.0000 H   0  0  0  0  0  0  0  0  0  0  0  0
    9.4631    0.9337    0.0000 H   0  0  0  0  0  0  0  0  0  0  0  0
    6.7960    1.8054    0.0000 H   0  0  0  0  0  0  0  0  0  0  0  0
    6.2928    0.2655    0.0000 H   0  0  0  0  0  0  0  0  0  0  0  0
    7.6707   -1.7629    0.0000 H   0  0  0  0  0  0  0  0  0  0  0  0
    5.8819   -4.4196    0.0000 H   0  0  0  0  0  0  0  0  0  0  0  0
    4.8709   -5.8137    0.0000 H   0  0  0  0  0  0  0  0  0  0  0  0
    2.8660   -2.7996    0.0000 H   0  0  0  0  0  0  0  0  0  0  0  0
    2.8660   -6.0396    0.0000 H   0  0  0  0  0  0  0  0  0  0  0  0
   10.3200   -1.2894    0.0000 H   0  0  0  0  0  0  0  0  0  0  0  0
   10.7988   -0.5549    0.0000 H   0  0  0  0  0  0  0  0  0  0  0  0
   10.0643   -0.0761    0.0000 H   0  0  0  0  0  0  0  0  0  0  0  0
    1.4631   -3.6096    0.0000 H   0  0  0  0  0  0  0  0  0  0  0  0
    1.4631   -5.2296    0.0000 H   0  0  0  0  0  0  0  0  0  0  0  0
    4.2177   -0.5081    0.0000 H   0  0  0  0  0  0  0  0  0  0  0  0
  1 29  1  0  0  0  0
  2 17  1  0  0  0  0
  2 28  1  0  0  0  0
  3 12  1  0  0  0  0
  3 13  1  0  0  0  0
  3 14  1  0  0  0  0
  4  9  1  0  0  0  0
  4 42  1  0  0  0  0
  4 43  1  0  0  0  0
  5 19  1  0  0  0  0
  5 23  1  0  0  0  0
  5 47  1  0  0  0  0
  6 22  1  0  0  0  0
  6 25  1  0  0  0  0
  6 49  1  0  0  0  0
  7 23  1  0  0  0  0
  7 24  2  0  0  0  0
  8 23  2  0  0  0  0
  8 32  1  0  0  0  0
  9 10  1  0  0  0  0
  9 11  1  0  0  0  0
  9 33  1  0  0  0  0
 10 12  1  0  0  0  0
 10 36  1  0  0  0  0
 10 37  1  0  0  0  0
 11 13  1  0  0  0  0
 11 34  1  0  0  0  0
 11 35  1  0  0  0  0
 12 40  1  0  0  0  0
 12 41  1  0  0  0  0
 13 38  1  0  0  0  0
 13 39  1  0  0  0  0
 14 15  2  0  0  0  0
 14 16  1  0  0  0  0
 15 17  1  0  0  0  0
 15 44  1  0  0  0  0
 16 18  2  0  0  0  0
 16 45  1  0  0  0  0
 17 19  2  0  0  0  0
 18 19  1  0  0  0  0
 18 46  1  0  0  0  0
 20 21  1  0  0  0  0
 20 24  1  0  0  0  0
 20 25  2  0  0  0  0
 21 22  1  0  0  0  0
 21 26  2  0  0  0  0
 22 27  2  0  0  0  0
 24 29  1  0  0  0  0
 25 48  1  0  0  0  0
 26 30  1  0  0  0  0
 26 50  1  0  0  0  0
 27 31  1  0  0  0  0
 27 51  1  0  0  0  0
 28 52  1  0  0  0  0
 28 53  1  0  0  0  0
 28 54  1  0  0  0  0
 29 32  2  0  0  0  0
 30 31  2  0  0  0  0
 30 55  1  0  0  0  0
 31 56  1  0  0  0  0
 32 57  1  0  0  0  0
M  END
>  <PUBCHEM_COMPOUND_CID>
56599293

>  <PUBCHEM_COMPOUND_CANONICALIZED>
1

>  <PUBCHEM_CACTVS_COMPLEXITY>
605

>  <PUBCHEM_CACTVS_HBOND_ACCEPTOR>
6

>  <PUBCHEM_CACTVS_HBOND_DONOR>
3

>  <PUBCHEM_CACTVS_ROTATABLE_BOND>
5

>  <PUBCHEM_CACTVS_SUBSKEYS>
AAADceB7oAAEAAAAAAAAAAAAAAAAAWAAAAA8eIEAAAAAAFgB/AAAHgIQAAAADC7BniY/1vfJlACgAzRnZACCiCkxJ6AJ2aA/bpiOLuLF+dvFNChu0BvY6CeQ0MMOgACAAgACEAAAAQAEAAQgAAAAAAAAAA==

>  <PUBCHEM_IUPAC_OPENEYE_NAME>
N-[4-(4-amino-1-piperidyl)-2-methoxy-phenyl]-5-chloro-4-(1H-indol-3-yl)pyrimidin-2-amine

>  <PUBCHEM_IUPAC_CAS_NAME>
N-[4-(4-amino-1-piperidinyl)-2-methoxyphenyl]-5-chloro-4-(1H-indol-3-yl)-2-pyrimidinamine

>  <PUBCHEM_IUPAC_NAME>
N-[4-(4-aminopiperidin-1-yl)-2-methoxyphenyl]-5-chloro-4-(1H-indol-3-yl)pyrimidin-2-amine

>  <PUBCHEM_IUPAC_SYSTEMATIC_NAME>
N-[4-(4-azanylpiperidin-1-yl)-2-methoxy-phenyl]-5-chloranyl-4-(1H-indol-3-yl)pyrimidin-2-amine

>  <PUBCHEM_IUPAC_TRADITIONAL_NAME>
[4-(4-aminopiperidino)-2-methoxy-phenyl]-[5-chloro-4-(1H-indol-3-yl)pyrimidin-2-yl]amine

>  <PUBCHEM_IUPAC_INCHI>
InChI=1S/C24H25ClN6O/c1-32-22-12-16(31-10-8-15(26)9-11-31)6-7-21(22)29-24-28-14-19(25)23(30-24)18-13-27-20-5-3-2-4-17(18)20/h2-7,12-15,27H,8-11,26H2,1H3,(H,28,29,30)

>  <PUBCHEM_IUPAC_INCHIKEY>
GCYIGMXOIWJGBU-UHFFFAOYSA-N

>  <PUBCHEM_XLOGP3_AA>
4.2

>  <PUBCHEM_EXACT_MASS>
448.177837

>  <PUBCHEM_MOLECULAR_FORMULA>
C24H25ClN6O

>  <PUBCHEM_MOLECULAR_WEIGHT>
448.9479

>  <PUBCHEM_OPENEYE_CAN_SMILES>
COC1=C(C=CC(=C1)N2CCC(CC2)N)NC3=NC=C(C(=N3)C4=CNC5=CC=CC=C54)Cl

>  <PUBCHEM_OPENEYE_ISO_SMILES>
COC1=C(C=CC(=C1)N2CCC(CC2)N)NC3=NC=C(C(=N3)C4=CNC5=CC=CC=C54)Cl

>  <PUBCHEM_CACTVS_TPSA>
92.1

>  <PUBCHEM_MONOISOTOPIC_WEIGHT>
448.177837

>  <PUBCHEM_TOTAL_CHARGE>
0

>  <PUBCHEM_HEAVY_ATOM_COUNT>
32

>  <PUBCHEM_ATOM_DEF_STEREO_COUNT>
0

>  <PUBCHEM_ATOM_UDEF_STEREO_COUNT>
0

>  <PUBCHEM_BOND_DEF_STEREO_COUNT>
0

>  <PUBCHEM_BOND_UDEF_STEREO_COUNT>
0

>  <PUBCHEM_ISOTOPIC_ATOM_COUNT>
0

>  <PUBCHEM_COMPONENT_COUNT>
1

>  <PUBCHEM_CACTVS_TAUTO_COUNT>
9

>  <PUBCHEM_COORDINATE_TYPE>
1
5
255

>  <PUBCHEM_BONDANNOTATIONS>
14  15  8
14  16  8
15  17  8
16  18  8
17  19  8
18  19  8
20  21  8
20  25  8
21  22  8
21  26  8
22  27  8
24  29  8
26  30  8
27  31  8
29  32  8
30  31  8
6  22  8
6  25  8
7  23  8
7  24  8
8  23  8
8  32  8

$$$$
