
 OpenBabel11121517312D

 76 82  0  0  0  0  0  0  0  0999 V2000
    4.5274    2.9894    0.0000 S   0  0  0  0  0  0  0  0  0  0  0  0
    8.3343    3.0775    0.0000 O   0  0  0  0  0  0  0  0  0  0  0  0
   11.3199    1.0560    0.0000 O   0  0  0  0  0  0  0  0  0  0  0  0
    7.0333   -0.8359    0.0000 O   0  0  0  0  0  0  0  0  0  0  0  0
    9.2614    5.9306    0.0000 O   0  0  0  0  0  0  0  0  0  0  0  0
    6.3933   -2.7307    0.0000 N   0  0  0  0  0  0  0  0  0  0  0  0
    7.7143   -4.2324    0.0000 N   0  0  0  0  0  0  0  0  0  0  0  0
    5.3923   -0.2817    0.0000 N   0  0  0  0  0  0  0  0  0  0  0  0
    9.9816    2.5422    0.0000 N   0  0  0  0  0  0  0  0  0  0  0  0
    6.0733   -3.6782    0.0000 C   0  0  0  0  0  0  0  0  0  0  0  0
    7.3738   -2.5342    0.0000 C   0  0  0  0  0  0  0  0  0  0  0  0
    6.7338   -4.4290    0.0000 C   0  0  0  0  0  0  0  0  0  0  0  0
    8.0343   -3.2850    0.0000 C   0  0  0  0  0  0  0  0  0  0  0  0
    5.7328   -1.9799    0.0000 C   0  0  0  0  0  0  0  0  0  0  0  0
    8.3748   -4.9832    0.0000 C   0  0  0  0  0  0  0  0  0  0  0  0
    6.0528   -1.0325    0.0000 C   0  0  0  0  0  0  0  0  0  0  0  0
    8.0548   -5.9306    0.0000 C   0  0  0  0  0  0  0  0  0  0  0  0
    5.0274    1.4505    0.0000 C   0  0  0  0  0  0  0  0  0  0  0  0
    5.7123    0.6658    0.0000 C   0  0  0  0  0  0  0  0  0  0  0  0
    5.3364    2.4016    0.0000 C   0  0  0  0  0  0  0  0  0  0  0  0
    6.3518    2.6338    0.0000 C   0  0  0  0  0  0  0  0  0  0  0  0
    4.0274    1.4505    0.0000 C   0  0  0  0  0  0  0  0  0  0  0  0
    6.6498    3.5884    0.0000 C   0  0  0  0  0  0  0  0  0  0  0  0
   10.9597    2.7502    0.0000 C   0  0  0  0  0  0  0  0  0  0  0  0
    9.6726    1.5912    0.0000 C   0  0  0  0  0  0  0  0  0  0  0  0
    7.6652    3.8206    0.0000 C   0  0  0  0  0  0  0  0  0  0  0  0
    6.7328    0.8745    0.0000 C   0  0  0  0  0  0  0  0  0  0  0  0
    9.3125    3.2854    0.0000 C   0  0  0  0  0  0  0  0  0  0  0  0
    3.7183    2.4016    0.0000 C   0  0  0  0  0  0  0  0  0  0  0  0
    7.0547    1.8651    0.0000 C   0  0  0  0  0  0  0  0  0  0  0  0
   11.6289    2.0070    0.0000 C   0  0  0  0  0  0  0  0  0  0  0  0
   10.3417    0.8480    0.0000 C   0  0  0  0  0  0  0  0  0  0  0  0
    7.9742    4.7717    0.0000 C   0  0  0  0  0  0  0  0  0  0  0  0
    5.9469    4.3571    0.0000 C   0  0  0  0  0  0  0  0  0  0  0  0
    9.6215    4.2364    0.0000 C   0  0  0  0  0  0  0  0  0  0  0  0
    3.3424    0.6658    0.0000 C   0  0  0  0  0  0  0  0  0  0  0  0
    8.9524    4.9796    0.0000 C   0  0  0  0  0  0  0  0  0  0  0  0
    7.2892    5.5564    0.0000 C   0  0  0  0  0  0  0  0  0  0  0  0
    2.7029    2.6338    0.0000 C   0  0  0  0  0  0  0  0  0  0  0  0
    6.2687    5.3477    0.0000 C   0  0  0  0  0  0  0  0  0  0  0  0
    2.3219    0.8745    0.0000 C   0  0  0  0  0  0  0  0  0  0  0  0
    2.0000    1.8651    0.0000 C   0  0  0  0  0  0  0  0  0  0  0  0
    7.9034   -2.2117    0.0000 H   0  0  0  0  0  0  0  0  0  0  0  0
    7.1482   -1.9566    0.0000 H   0  0  0  0  0  0  0  0  0  0  0  0
    5.5293   -3.3808    0.0000 H   0  0  0  0  0  0  0  0  0  0  0  0
    5.6860   -4.1623    0.0000 H   0  0  0  0  0  0  0  0  0  0  0  0
    6.2043   -4.7514    0.0000 H   0  0  0  0  0  0  0  0  0  0  0  0
    6.9594   -5.0065    0.0000 H   0  0  0  0  0  0  0  0  0  0  0  0
    8.5783   -3.5824    0.0000 H   0  0  0  0  0  0  0  0  0  0  0  0
    8.4216   -2.8009    0.0000 H   0  0  0  0  0  0  0  0  0  0  0  0
    5.1888   -1.6825    0.0000 H   0  0  0  0  0  0  0  0  0  0  0  0
    5.3455   -2.4640    0.0000 H   0  0  0  0  0  0  0  0  0  0  0  0
    8.9188   -5.2806    0.0000 H   0  0  0  0  0  0  0  0  0  0  0  0
    8.7621   -4.4991    0.0000 H   0  0  0  0  0  0  0  0  0  0  0  0
    7.4674   -5.7323    0.0000 H   0  0  0  0  0  0  0  0  0  0  0  0
    7.8564   -6.5180    0.0000 H   0  0  0  0  0  0  0  0  0  0  0  0
    8.6422   -6.1290    0.0000 H   0  0  0  0  0  0  0  0  0  0  0  0
    4.7844   -0.4035    0.0000 H   0  0  0  0  0  0  0  0  0  0  0  0
    9.1252    1.8823    0.0000 H   0  0  0  0  0  0  0  0  0  0  0  0
    9.2909    1.1026    0.0000 H   0  0  0  0  0  0  0  0  0  0  0  0
   11.4855    3.0787    0.0000 H   0  0  0  0  0  0  0  0  0  0  0  0
   10.7275    3.3250    0.0000 H   0  0  0  0  0  0  0  0  0  0  0  0
    7.1459    0.4121    0.0000 H   0  0  0  0  0  0  0  0  0  0  0  0
    7.6607    1.9964    0.0000 H   0  0  0  0  0  0  0  0  0  0  0  0
    9.8159    0.5195    0.0000 H   0  0  0  0  0  0  0  0  0  0  0  0
   10.5740    0.2732    0.0000 H   0  0  0  0  0  0  0  0  0  0  0  0
   12.1763    1.7159    0.0000 H   0  0  0  0  0  0  0  0  0  0  0  0
   12.0106    2.4956    0.0000 H   0  0  0  0  0  0  0  0  0  0  0  0
    5.3409    4.2258    0.0000 H   0  0  0  0  0  0  0  0  0  0  0  0
   10.2279    4.3654    0.0000 H   0  0  0  0  0  0  0  0  0  0  0  0
    3.5408    0.0784    0.0000 H   0  0  0  0  0  0  0  0  0  0  0  0
    7.4876    6.1438    0.0000 H   0  0  0  0  0  0  0  0  0  0  0  0
    2.5182    3.2256    0.0000 H   0  0  0  0  0  0  0  0  0  0  0  0
    5.8556    5.8101    0.0000 H   0  0  0  0  0  0  0  0  0  0  0  0
    1.9088    0.4121    0.0000 H   0  0  0  0  0  0  0  0  0  0  0  0
    1.3940    1.9964    0.0000 H   0  0  0  0  0  0  0  0  0  0  0  0
  1 20  1  0  0  0  0
  1 29  1  0  0  0  0
  2 26  1  0  0  0  0
  2 28  1  0  0  0  0
  3 31  1  0  0  0  0
  3 32  1  0  0  0  0
  4 16  2  0  0  0  0
  5 37  2  0  0  0  0
  6 10  1  0  0  0  0
  6 11  1  0  0  0  0
  6 14  1  0  0  0  0
  7 12  1  0  0  0  0
  7 13  1  0  0  0  0
  7 15  1  0  0  0  0
  8 16  1  0  0  0  0
  8 19  1  0  0  0  0
  8 58  1  0  0  0  0
  9 24  1  0  0  0  0
  9 25  1  0  0  0  0
  9 28  1  0  0  0  0
 10 12  1  0  0  0  0
 10 45  1  0  0  0  0
 10 46  1  0  0  0  0
 11 13  1  0  0  0  0
 11 43  1  0  0  0  0
 11 44  1  0  0  0  0
 12 47  1  0  0  0  0
 12 48  1  0  0  0  0
 13 49  1  0  0  0  0
 13 50  1  0  0  0  0
 14 16  1  0  0  0  0
 14 51  1  0  0  0  0
 14 52  1  0  0  0  0
 15 17  1  0  0  0  0
 15 53  1  0  0  0  0
 15 54  1  0  0  0  0
 17 55  1  0  0  0  0
 17 56  1  0  0  0  0
 17 57  1  0  0  0  0
 18 19  2  0  0  0  0
 18 20  1  0  0  0  0
 18 22  1  0  0  0  0
 19 27  1  0  0  0  0
 20 21  2  0  0  0  0
 21 23  1  0  0  0  0
 21 30  1  0  0  0  0
 22 29  1  0  0  0  0
 22 36  2  0  0  0  0
 23 26  1  0  0  0  0
 23 34  2  0  0  0  0
 24 31  1  0  0  0  0
 24 61  1  0  0  0  0
 24 62  1  0  0  0  0
 25 32  1  0  0  0  0
 25 59  1  0  0  0  0
 25 60  1  0  0  0  0
 26 33  2  0  0  0  0
 27 30  2  0  0  0  0
 27 63  1  0  0  0  0
 28 35  2  0  0  0  0
 29 39  2  0  0  0  0
 30 64  1  0  0  0  0
 31 67  1  0  0  0  0
 31 68  1  0  0  0  0
 32 65  1  0  0  0  0
 32 66  1  0  0  0  0
 33 37  1  0  0  0  0
 33 38  1  0  0  0  0
 34 40  1  0  0  0  0
 34 69  1  0  0  0  0
 35 37  1  0  0  0  0
 35 70  1  0  0  0  0
 36 41  1  0  0  0  0
 36 71  1  0  0  0  0
 38 40  2  0  0  0  0
 38 72  1  0  0  0  0
 39 42  1  0  0  0  0
 39 73  1  0  0  0  0
 40 74  1  0  0  0  0
 41 42  2  0  0  0  0
 41 75  1  0  0  0  0
 42 76  1  0  0  0  0
M  END
>  <PUBCHEM_COMPOUND_CID>
11964036

>  <PUBCHEM_COMPOUND_CANONICALIZED>
1

>  <PUBCHEM_CACTVS_COMPLEXITY>
1010

>  <PUBCHEM_CACTVS_HBOND_ACCEPTOR>
8

>  <PUBCHEM_CACTVS_HBOND_DONOR>
1

>  <PUBCHEM_CACTVS_ROTATABLE_BOND>
6

>  <PUBCHEM_CACTVS_SUBSKEYS>
AAADcfB/uABAAAAAAAAAAAAAAAAAASAAAAA8eMECAAAAAEiB/AAAHgQQAAAADAzh2AYyx8PABAiMAqVSUACDCIAlKhBIiBmMbMgOZjbktbufMWxk9BH46ceYyPCOiAACACAOAAAQAAQAQBwAAAAAAAAAAA==

>  <PUBCHEM_IUPAC_OPENEYE_NAME>
2-(4-ethylpiperazin-1-yl)-N-[4-(2-morpholino-4-oxo-chromen-8-yl)dibenzothiophen-1-yl]acetamide

>  <PUBCHEM_IUPAC_CAS_NAME>
2-(4-ethyl-1-piperazinyl)-N-[4-[2-(4-morpholinyl)-4-oxo-1-benzopyran-8-yl]-1-dibenzothiophenyl]acetamide

>  <PUBCHEM_IUPAC_NAME>
2-(4-ethylpiperazin-1-yl)-N-[4-(2-morpholin-4-yl-4-oxochromen-8-yl)dibenzothiophen-1-yl]acetamide

>  <PUBCHEM_IUPAC_SYSTEMATIC_NAME>
2-(4-ethylpiperazin-1-yl)-N-[4-(2-morpholin-4-yl-4-oxidanylidene-chromen-8-yl)dibenzothiophen-1-yl]ethanamide

>  <PUBCHEM_IUPAC_TRADITIONAL_NAME>
2-(4-ethylpiperazino)-N-[4-(4-keto-2-morpholino-chromen-8-yl)dibenzothiophen-1-yl]acetamide

>  <PUBCHEM_IUPAC_INCHI>
InChI=1S/C33H34N4O4S/c1-2-35-12-14-36(15-13-35)21-29(39)34-26-11-10-23(33-31(26)25-6-3-4-9-28(25)42-33)22-7-5-8-24-27(38)20-30(41-32(22)24)37-16-18-40-19-17-37/h3-11,20H,2,12-19,21H2,1H3,(H,34,39)

>  <PUBCHEM_IUPAC_INCHIKEY>
AATCBLYHOUOCTO-UHFFFAOYSA-N

>  <PUBCHEM_XLOGP3_AA>
4.9

>  <PUBCHEM_EXACT_MASS>
582.230077

>  <PUBCHEM_MOLECULAR_FORMULA>
C33H34N4O4S

>  <PUBCHEM_MOLECULAR_WEIGHT>
582.71246

>  <PUBCHEM_OPENEYE_CAN_SMILES>
CCN1CCN(CC1)CC(=O)NC2=C3C4=CC=CC=C4SC3=C(C=C2)C5=CC=CC6=C5OC(=CC6=O)N7CCOCC7

>  <PUBCHEM_OPENEYE_ISO_SMILES>
CCN1CCN(CC1)CC(=O)NC2=C3C4=CC=CC=C4SC3=C(C=C2)C5=CC=CC6=C5OC(=CC6=O)N7CCOCC7

>  <PUBCHEM_CACTVS_TPSA>
103

>  <PUBCHEM_MONOISOTOPIC_WEIGHT>
582.230077

>  <PUBCHEM_TOTAL_CHARGE>
0

>  <PUBCHEM_HEAVY_ATOM_COUNT>
42

>  <PUBCHEM_ATOM_DEF_STEREO_COUNT>
0

>  <PUBCHEM_ATOM_UDEF_STEREO_COUNT>
0

>  <PUBCHEM_BOND_DEF_STEREO_COUNT>
0

>  <PUBCHEM_BOND_UDEF_STEREO_COUNT>
0

>  <PUBCHEM_ISOTOPIC_ATOM_COUNT>
0

>  <PUBCHEM_COMPONENT_COUNT>
1

>  <PUBCHEM_CACTVS_TAUTO_COUNT>
3

>  <PUBCHEM_COORDINATE_TYPE>
1
5
255

>  <PUBCHEM_BONDANNOTATIONS>
1  20  8
1  29  8
18  19  8
18  20  8
18  22  8
19  27  8
2  26  8
2  28  8
20  21  8
21  30  8
22  29  8
22  36  8
23  26  8
23  34  8
26  33  8
27  30  8
28  35  8
29  39  8
33  37  8
33  38  8
34  40  8
35  37  8
36  41  8
38  40  8
39  42  8
41  42  8

$$$$
