
 OpenBabel11121517312D

100100  0  0  1  0  0  0  0  0999 V2000
   12.5442    2.3479    0.0000 Pt  0  2  0  0  0 15  0  0  0  0  0  0
    3.4641    9.0433    0.0000 F   0  0  0  0  0  0  0  0  0  0  0  0
   13.3532    1.7601    0.0000 O   0  0  0  0  0  0  0  0  0  0  0  0
   11.7352    1.7601    0.0000 O   0  0  0  0  0  0  0  0  0  0  0  0
   11.4564    0.0000    0.0000 O   0  0  0  0  0  0  0  0  0  0  0  0
   13.6320    0.0000    0.0000 O   0  0  0  0  0  0  0  0  0  0  0  0
   17.2901   12.3973    0.0000 O   0  0  0  0  0  0  0  0  0  0  0  0
   14.6756   11.9319    0.0000 O   0  0  0  0  0  0  0  0  0  0  0  0
    9.4795   10.9319    0.0000 O   0  0  0  0  0  0  0  0  0  0  0  0
    6.0154   11.9319    0.0000 O   0  0  0  0  0  0  0  0  0  0  0  0
    6.8814   13.4319    0.0000 O   0  0  0  0  0  0  0  0  0  0  0  0
    6.0154    8.9319    0.0000 O   0  0  0  0  0  0  0  0  0  0  0  0
    7.7474    8.9319    0.0000 O   0  0  0  0  0  0  0  0  0  0  0  0
    0.0000    7.0433    0.0000 O   0  0  0  0  0  0  0  0  0  0  0  0
    3.4641    7.0433    0.0000 O   0  0  0  0  0  0  0  0  0  0  0  0
   15.5417   13.4319    0.0000 N   0  0  0  0  0  0  0  0  0  0  0  0
   15.5417   15.4319    0.0000 N   0  0  0  0  0  0  0  0  0  0  0  0
   12.9436   13.9319    0.0000 N   0  0  0  0  0  0  0  0  0  0  0  0
   17.3016   15.4666    0.0000 N   0  0  0  0  0  0  0  0  0  0  0  0
   18.2077   13.9111    0.0000 N   0  0  0  0  0  0  0  0  0  0  0  0
   19.0718   15.4561    0.0000 N   0  0  0  0  0  0  0  0  0  0  0  0
    8.6135   12.4319    0.0000 N   0  0  0  0  0  0  0  0  0  0  0  0
    1.7320    7.0433    0.0000 N   0  0  0  0  0  0  0  0  0  0  0  0
    0.8660    8.5433    0.0000 N   0  0  0  0  0  0  0  0  0  0  0  0
   12.0442    3.8867    0.0000 C   0  0  2  0  0  0  0  0  0  0  0  0
   13.0442    3.8867    0.0000 C   0  0  2  0  0  0  0  0  0  0  0  0
   11.7352    2.9356    0.0000 C   0  5  0  0  0  0  0  0  0  0  0  0
   13.3532    2.9356    0.0000 C   0  5  0  0  0  0  0  0  0  0  0  0
   11.5095    4.7806    0.0000 C   0  0  0  0  0  0  0  0  0  0  0  0
   13.5789    4.7806    0.0000 C   0  0  0  0  0  0  0  0  0  0  0  0
   12.0234    5.6867    0.0000 C   0  0  0  0  0  0  0  0  0  0  0  0
   13.0650    5.6867    0.0000 C   0  0  0  0  0  0  0  0  0  0  0  0
   12.0442    0.8090    0.0000 C   0  0  0  0  0  0  0  0  0  0  0  0
   13.0442    0.8090    0.0000 C   0  0  0  0  0  0  0  0  0  0  0  0
   14.6756   13.9319    0.0000 C   0  0  3  0  0  0  0  0  0  0  0  0
   14.6756   14.9319    0.0000 C   0  0  0  0  0  0  0  0  0  0  0  0
   13.8096   13.4319    0.0000 C   0  0  0  0  0  0  0  0  0  0  0  0
   16.4077   13.9319    0.0000 C   0  0  0  0  0  0  0  0  0  0  0  0
   16.4077   14.9319    0.0000 C   0  0  0  0  0  0  0  0  0  0  0  0
   17.3016   13.3973    0.0000 C   0  0  0  0  0  0  0  0  0  0  0  0
   15.5417   12.4319    0.0000 C   0  0  0  0  0  0  0  0  0  0  0  0
   12.0776   13.4319    0.0000 C   0  0  0  0  0  0  0  0  0  0  0  0
   18.2077   14.9527    0.0000 C   0  0  0  0  0  0  0  0  0  0  0  0
   12.0776   12.4319    0.0000 C   0  0  0  0  0  0  0  0  0  0  0  0
   11.2115   13.9319    0.0000 C   0  0  0  0  0  0  0  0  0  0  0  0
   10.3455   12.4319    0.0000 C   0  0  0  0  0  0  0  0  0  0  0  0
   11.2115   11.9319    0.0000 C   0  0  0  0  0  0  0  0  0  0  0  0
   10.3455   13.4319    0.0000 C   0  0  0  0  0  0  0  0  0  0  0  0
    7.7474   11.9319    0.0000 C   0  0  1  0  0  0  0  0  0  0  0  0
    9.4795   11.9319    0.0000 C   0  0  0  0  0  0  0  0  0  0  0  0
    7.7474   10.9319    0.0000 C   0  0  0  0  0  0  0  0  0  0  0  0
    6.8814   10.4319    0.0000 C   0  0  0  0  0  0  0  0  0  0  0  0
    6.8814   12.4319    0.0000 C   0  0  0  0  0  0  0  0  0  0  0  0
    6.8814    9.4319    0.0000 C   0  0  0  0  0  0  0  0  0  0  0  0
    2.5981    8.5433    0.0000 C   0  0  0  0  0  0  0  0  0  0  0  0
    0.8660    7.5433    0.0000 C   0  0  0  0  0  0  0  0  0  0  0  0
    2.5981    7.5433    0.0000 C   0  0  0  0  0  0  0  0  0  0  0  0
    1.7320    9.0433    0.0000 C   0  0  0  0  0  0  0  0  0  0  0  0
   11.1996    3.7913    0.0000 H   0  0  0  0  0  0  0  0  0  0  0  0
   13.8888    3.7913    0.0000 H   0  0  0  0  0  0  0  0  0  0  0  0
   11.1455    3.1272    0.0000 H   0  0  0  0  0  0  0  0  0  0  0  0
   11.3707    2.4340    0.0000 H   0  0  0  0  0  0  0  0  0  0  0  0
   13.9429    3.1272    0.0000 H   0  0  0  0  0  0  0  0  0  0  0  0
   13.7176    2.4340    0.0000 H   0  0  0  0  0  0  0  0  0  0  0  0
   11.0305    5.1743    0.0000 H   0  0  0  0  0  0  0  0  0  0  0  0
   11.0397    4.3760    0.0000 H   0  0  0  0  0  0  0  0  0  0  0  0
   14.0486    4.3760    0.0000 H   0  0  0  0  0  0  0  0  0  0  0  0
   14.0579    5.1743    0.0000 H   0  0  0  0  0  0  0  0  0  0  0  0
   12.1295    6.2976    0.0000 H   0  0  0  0  0  0  0  0  0  0  0  0
   11.4397    5.8958    0.0000 H   0  0  0  0  0  0  0  0  0  0  0  0
   13.6487    5.8958    0.0000 H   0  0  0  0  0  0  0  0  0  0  0  0
   12.9589    6.2976    0.0000 H   0  0  0  0  0  0  0  0  0  0  0  0
   11.1287    1.6312    0.0000 H   0  0  0  0  0  0  0  0  0  0  0  0
   13.9597    1.6312    0.0000 H   0  0  0  0  0  0  0  0  0  0  0  0
   14.6756   13.3119    0.0000 H   0  0  0  0  0  0  0  0  0  0  0  0
   14.4636   15.5145    0.0000 H   0  0  0  0  0  0  0  0  0  0  0  0
   14.0651   14.8243    0.0000 H   0  0  0  0  0  0  0  0  0  0  0  0
   13.4111   12.9570    0.0000 H   0  0  0  0  0  0  0  0  0  0  0  0
   14.2082   12.9570    0.0000 H   0  0  0  0  0  0  0  0  0  0  0  0
   15.5417   16.0519    0.0000 H   0  0  0  0  0  0  0  0  0  0  0  0
   12.9436   14.5519    0.0000 H   0  0  0  0  0  0  0  0  0  0  0  0
   17.2945   16.0865    0.0000 H   0  0  0  0  0  0  0  0  0  0  0  0
   16.0786   12.1219    0.0000 H   0  0  0  0  0  0  0  0  0  0  0  0
   12.6145   12.1219    0.0000 H   0  0  0  0  0  0  0  0  0  0  0  0
   11.2115   14.5519    0.0000 H   0  0  0  0  0  0  0  0  0  0  0  0
   11.2115   11.3119    0.0000 H   0  0  0  0  0  0  0  0  0  0  0  0
    9.8086   13.7419    0.0000 H   0  0  0  0  0  0  0  0  0  0  0  0
   19.6099   15.1481    0.0000 H   0  0  0  0  0  0  0  0  0  0  0  0
   19.0694   16.0761    0.0000 H   0  0  0  0  0  0  0  0  0  0  0  0
    7.7474   12.5519    0.0000 H   0  0  0  0  0  0  0  0  0  0  0  0
    7.9595   10.3493    0.0000 H   0  0  0  0  0  0  0  0  0  0  0  0
    8.3580   11.0396    0.0000 H   0  0  0  0  0  0  0  0  0  0  0  0
    8.6135   13.0519    0.0000 H   0  0  0  0  0  0  0  0  0  0  0  0
    6.6694   11.0145    0.0000 H   0  0  0  0  0  0  0  0  0  0  0  0
    6.2708   10.3243    0.0000 H   0  0  0  0  0  0  0  0  0  0  0  0
    5.4785   12.2419    0.0000 H   0  0  0  0  0  0  0  0  0  0  0  0
    6.0154    8.3119    0.0000 H   0  0  0  0  0  0  0  0  0  0  0  0
    1.7320    6.4233    0.0000 H   0  0  0  0  0  0  0  0  0  0  0  0
    0.3291    8.8533    0.0000 H   0  0  0  0  0  0  0  0  0  0  0  0
    1.7320    9.6633    0.0000 H   0  0  0  0  0  0  0  0  0  0  0  0
  2 55  1  0  0  0  0
  3 34  1  0  0  0  0
  3 74  1  0  0  0  0
  4 33  1  0  0  0  0
  4 73  1  0  0  0  0
  5 33  2  0  0  0  0
  6 34  2  0  0  0  0
  7 40  2  0  0  0  0
  8 41  2  0  0  0  0
  9 50  2  0  0  0  0
 10 53  1  0  0  0  0
 10 96  1  0  0  0  0
 11 53  2  0  0  0  0
 12 54  1  0  0  0  0
 12 97  1  0  0  0  0
 13 54  2  0  0  0  0
 14 56  2  0  0  0  0
 15 57  2  0  0  0  0
 16 35  1  0  0  0  0
 16 38  1  0  0  0  0
 16 41  1  0  0  0  0
 17 36  1  0  0  0  0
 17 39  1  0  0  0  0
 17 80  1  0  0  0  0
 18 37  1  0  0  0  0
 18 42  1  0  0  0  0
 18 81  1  0  0  0  0
 19 39  1  0  0  0  0
 19 43  1  0  0  0  0
 19 82  1  0  0  0  0
 20 40  1  0  0  0  0
 20 43  2  0  0  0  0
 21 43  1  0  0  0  0
 21 88  1  0  0  0  0
 21 89  1  0  0  0  0
 22 50  1  0  0  0  0
 22 93  1  0  0  0  0
 23 56  1  0  0  0  0
 23 57  1  0  0  0  0
 23 98  1  0  0  0  0
 24 56  1  0  0  0  0
 24 58  1  0  0  0  0
 24 99  1  0  0  0  0
 25 26  1  0  0  0  0
 25 27  1  0  0  0  0
 25 29  1  0  0  0  0
 25 59  1  1  0  0  0
 26 28  1  0  0  0  0
 26 30  1  0  0  0  0
 26 60  1  6  0  0  0
 27 61  1  0  0  0  0
 27 62  1  0  0  0  0
 28 63  1  0  0  0  0
 28 64  1  0  0  0  0
 29 31  1  0  0  0  0
 29 65  1  0  0  0  0
 29 66  1  0  0  0  0
 30 32  1  0  0  0  0
 30 67  1  0  0  0  0
 30 68  1  0  0  0  0
 31 32  1  0  0  0  0
 31 69  1  0  0  0  0
 31 70  1  0  0  0  0
 32 71  1  0  0  0  0
 32 72  1  0  0  0  0
 33 34  1  0  0  0  0
 35 36  1  0  0  0  0
 35 37  1  0  0  0  0
 35 75  1  0  0  0  0
 36 76  1  0  0  0  0
 36 77  1  0  0  0  0
 37 78  1  0  0  0  0
 37 79  1  0  0  0  0
 38 39  2  0  0  0  0
 38 40  1  0  0  0  0
 41 83  1  0  0  0  0
 42 44  2  0  0  0  0
 42 45  1  0  0  0  0
 44 47  1  0  0  0  0
 44 84  1  0  0  0  0
 45 48  2  0  0  0  0
 45 85  1  0  0  0  0
 46 47  2  0  0  0  0
 46 48  1  0  0  0  0
 46 50  1  0  0  0  0
 47 86  1  0  0  0  0
 48 87  1  0  0  0  0
 49 22  1  0  0  0  0
 49 51  1  0  0  0  0
 49 53  1  0  0  0  0
 49 90  1  6  0  0  0
 51 52  1  0  0  0  0
 51 91  1  0  0  0  0
 51 92  1  0  0  0  0
 52 54  1  0  0  0  0
 52 94  1  0  0  0  0
 52 95  1  0  0  0  0
 55 57  1  0  0  0  0
 55 58  2  0  0  0  0
 58100  1  0  0  0  0
M  CHG  3   1   2  27  -1  28  -1
M  END
>  <PUBCHEM_COMPOUND_CID>
56842121

>  <PUBCHEM_COMPOUND_CANONICALIZED>
1

>  <PUBCHEM_CACTVS_COMPLEXITY>
1290

>  <PUBCHEM_CACTVS_HBOND_ACCEPTOR>
18

>  <PUBCHEM_CACTVS_HBOND_DONOR>
11

>  <PUBCHEM_CACTVS_ROTATABLE_BOND>
9

>  <PUBCHEM_CACTVS_SUBSKEYS>
AAADcfB//QAAAAAAAAAABAAAAAAAASJAAAAwYIECAAAAAEiBAAAAHwAQCAAADSjBmAYxyIPAAgCoAiXW/AKCAAElAgAJiIHIZMiLYDLA1bGUYQhslyLZyce8r4CeiAAAAAAAAAAQAAAAACAAAAAAAAAAAA==

>  <PUBCHEM_IUPAC_OPENEYE_NAME>
(2S)-2-[[4-[(2-amino-5-formyl-4-oxo-1,6,7,8-tetrahydropteridin-6-yl)methylamino]benzoyl]amino]pentanedioic acid;(1R,2R)-1,2-dimethanidylcyclohexane;5-fluoro-1H-pyrimidine-2,4-dione;oxalic acid;platinum(2+)

>  <PUBCHEM_IUPAC_CAS_NAME>
(2S)-2-[[[4-[(2-amino-5-formyl-4-oxo-1,6,7,8-tetrahydropteridin-6-yl)methylamino]phenyl]-oxomethyl]amino]pentanedioic acid;(1R,2R)-1,2-dimethanidylcyclohexane;5-fluoro-1H-pyrimidine-2,4-dione;oxalic acid;platinum(2+)

>  <PUBCHEM_IUPAC_NAME>
(2S)-2-[[4-[(2-amino-5-formyl-4-oxo-1,6,7,8-tetrahydropteridin-6-yl)methylamino]benzoyl]amino]pentanedioic acid;(1R,2R)-1,2-dimethanidylcyclohexane;5-fluoro-1H-pyrimidine-2,4-dione;oxalic acid;platinum(2+)

>  <PUBCHEM_IUPAC_SYSTEMATIC_NAME>
(2S)-2-[[4-[(2-azanyl-5-methanoyl-4-oxidanylidene-1,6,7,8-tetrahydropteridin-6-yl)methylamino]phenyl]carbonylamino]pentanedioic acid;(1R,2R)-1,2-dimethanidylcyclohexane;ethanedioic acid;5-fluoranyl-1H-pyrimidine-2,4-dione;platinum(2+)

>  <PUBCHEM_IUPAC_TRADITIONAL_NAME>
(2S)-2-[[4-[(2-amino-5-formyl-4-keto-1,6,7,8-tetrahydropteridin-6-yl)methylamino]benzoyl]amino]glutaric acid;(1R,2R)-1,2-dimethanidylcyclohexane;5-fluorouracil;oxalic acid;platinum(2+)

>  <PUBCHEM_IUPAC_INCHI>
InChI=1S/C20H23N7O7.C8H14.C4H3FN2O2.C2H2O4.Pt/c21-20-25-16-15(18(32)26-20)27(9-28)12(8-23-16)7-22-11-3-1-10(2-4-11)17(31)24-13(19(33)34)5-6-14(29)30;1-7-5-3-4-6-8(7)2;5-2-1-6-4(9)7-3(2)8;3-1(4)2(5)6;/h1-4,9,12-13,22H,5-8H2,(H,24,31)(H,29,30)(H,33,34)(H4,21,23,25,26,32);7-8H,1-6H2;1H,(H2,6,7,8,9);(H,3,4)(H,5,6);/q;-2;;;+2/t12?,13-;7-,8-;;;/m01.../s1

>  <PUBCHEM_IUPAC_INCHIKEY>
YXTKHLHCVFUPPT-YYFJYKOTSA-N

>  <PUBCHEM_EXACT_MASS>
998.253402

>  <PUBCHEM_MOLECULAR_FORMULA>
C34H42FN9O13Pt

>  <PUBCHEM_MOLECULAR_WEIGHT>
998.832183

>  <PUBCHEM_OPENEYE_CAN_SMILES>
[CH2-]C1CCCCC1[CH2-].C1C(N(C2=C(N1)NC(=NC2=O)N)C=O)CNC3=CC=C(C=C3)C(=O)NC(CCC(=O)O)C(=O)O.C1=C(C(=O)NC(=O)N1)F.C(=O)(C(=O)O)O.[Pt+2]

>  <PUBCHEM_OPENEYE_ISO_SMILES>
[CH2-][C@@H]1CCCC[C@H]1[CH2-].C1C(N(C2=C(N1)NC(=NC2=O)N)C=O)CNC3=CC=C(C=C3)C(=O)N[C@@H](CCC(=O)O)C(=O)O.C1=C(C(=O)NC(=O)N1)F.C(=O)(C(=O)O)O.[Pt+2]

>  <PUBCHEM_CACTVS_TPSA>
348

>  <PUBCHEM_MONOISOTOPIC_WEIGHT>
998.253402

>  <PUBCHEM_TOTAL_CHARGE>
0

>  <PUBCHEM_HEAVY_ATOM_COUNT>
58

>  <PUBCHEM_ATOM_DEF_STEREO_COUNT>
3

>  <PUBCHEM_ATOM_UDEF_STEREO_COUNT>
1

>  <PUBCHEM_BOND_DEF_STEREO_COUNT>
0

>  <PUBCHEM_BOND_UDEF_STEREO_COUNT>
0

>  <PUBCHEM_ISOTOPIC_ATOM_COUNT>
0

>  <PUBCHEM_COMPONENT_COUNT>
5

>  <PUBCHEM_CACTVS_TAUTO_COUNT>
1001

>  <PUBCHEM_NONSTANDARDBOND>
1  27  6
1  28  6
1  3  6
1  4  6

>  <PUBCHEM_COORDINATE_TYPE>
1
5
255

>  <PUBCHEM_BONDANNOTATIONS>
19  39  8
19  43  8
20  40  8
20  43  8
49  22  5
23  56  8
23  57  8
24  56  8
24  58  8
25  59  5
26  60  6
35  37  3
38  39  8
38  40  8
42  44  8
42  45  8
44  47  8
45  48  8
46  47  8
46  48  8
55  57  8
55  58  8

$$$$
