
 OpenBabel11121517312D

 48 51  0  0  1  0  0  0  0  0999 V2000
    4.0948   -1.9965    0.0000 S   0  0  0  0  0  0  0  0  0  0  0  0
    3.0778    0.3829    0.0000 O   0  0  0  0  0  0  0  0  0  0  0  0
    2.7099   -3.1180    0.0000 O   0  0  0  0  0  0  0  0  0  0  0  0
    6.7974    0.4980    0.0000 N   0  0  0  0  0  0  0  0  0  0  0  0
    8.5294    2.4980    0.0000 N   0  0  0  0  0  0  0  0  0  0  0  0
    2.6166   -1.3384    0.0000 N   0  0  0  0  0  0  0  0  0  0  0  0
    7.6634    1.9980    0.0000 C   0  0  1  0  0  0  0  0  0  0  0  0
    7.6634    0.9980    0.0000 C   0  0  0  0  0  0  0  0  0  0  0  0
    6.7974    2.4980    0.0000 C   0  0  0  0  0  0  0  0  0  0  0  0
    5.9313    1.9980    0.0000 C   0  0  0  0  0  0  0  0  0  0  0  0
    5.9313    0.9980    0.0000 C   0  0  0  0  0  0  0  0  0  0  0  0
    6.7974   -0.5020    0.0000 C   0  0  0  0  0  0  0  0  0  0  0  0
    7.6634   -1.0020    0.0000 C   0  0  0  0  0  0  0  0  0  0  0  0
    5.9313   -1.0020    0.0000 C   0  0  0  0  0  0  0  0  0  0  0  0
    7.6634   -2.0020    0.0000 C   0  0  0  0  0  0  0  0  0  0  0  0
    8.5294   -0.5020    0.0000 C   0  0  0  0  0  0  0  0  0  0  0  0
    5.9313   -2.0020    0.0000 C   0  0  0  0  0  0  0  0  0  0  0  0
    5.0653   -0.5020    0.0000 C   0  0  0  0  0  0  0  0  0  0  0  0
    6.7974   -2.5020    0.0000 C   0  0  0  0  0  0  0  0  0  0  0  0
    8.5294    0.4980    0.0000 C   0  0  0  0  0  0  0  0  0  0  0  0
    9.3954   -1.0020    0.0000 C   0  0  0  0  0  0  0  0  0  0  0  0
    4.1993   -1.0020    0.0000 C   0  0  0  0  0  0  0  0  0  0  0  0
    9.3954    0.9980    0.0000 C   0  0  0  0  0  0  0  0  0  0  0  0
   10.2615   -0.5020    0.0000 C   0  0  0  0  0  0  0  0  0  0  0  0
    3.2857   -0.5953    0.0000 C   0  0  0  0  0  0  0  0  0  0  0  0
   10.2615    0.4980    0.0000 C   0  0  0  0  0  0  0  0  0  0  0  0
    3.1166   -2.2044    0.0000 C   0  0  0  0  0  0  0  0  0  0  0  0
    7.6634    2.6180    0.0000 H   0  0  0  0  0  0  0  0  0  0  0  0
    7.8754    0.4154    0.0000 H   0  0  0  0  0  0  0  0  0  0  0  0
    8.2740    1.1056    0.0000 H   0  0  0  0  0  0  0  0  0  0  0  0
    7.1959    2.9729    0.0000 H   0  0  0  0  0  0  0  0  0  0  0  0
    6.3988    2.9729    0.0000 H   0  0  0  0  0  0  0  0  0  0  0  0
    5.7193    2.5806    0.0000 H   0  0  0  0  0  0  0  0  0  0  0  0
    5.3208    1.8903    0.0000 H   0  0  0  0  0  0  0  0  0  0  0  0
    5.3208    1.1056    0.0000 H   0  0  0  0  0  0  0  0  0  0  0  0
    5.7193    0.4154    0.0000 H   0  0  0  0  0  0  0  0  0  0  0  0
    8.5294    3.1180    0.0000 H   0  0  0  0  0  0  0  0  0  0  0  0
    9.0663    2.1880    0.0000 H   0  0  0  0  0  0  0  0  0  0  0  0
    8.2003   -2.3120    0.0000 H   0  0  0  0  0  0  0  0  0  0  0  0
    5.3944   -2.3120    0.0000 H   0  0  0  0  0  0  0  0  0  0  0  0
    5.0653    0.1180    0.0000 H   0  0  0  0  0  0  0  0  0  0  0  0
    6.7974   -3.1220    0.0000 H   0  0  0  0  0  0  0  0  0  0  0  0
    7.9925    0.8080    0.0000 H   0  0  0  0  0  0  0  0  0  0  0  0
    9.3954   -1.6220    0.0000 H   0  0  0  0  0  0  0  0  0  0  0  0
    9.3954    1.6180    0.0000 H   0  0  0  0  0  0  0  0  0  0  0  0
   10.7984   -0.8120    0.0000 H   0  0  0  0  0  0  0  0  0  0  0  0
   10.7984    0.8080    0.0000 H   0  0  0  0  0  0  0  0  0  0  0  0
    2.0000   -1.2736    0.0000 H   0  0  0  0  0  0  0  0  0  0  0  0
  1 22  1  0  0  0  0
  1 27  1  0  0  0  0
  2 25  2  0  0  0  0
  3 27  2  0  0  0  0
  4  8  1  0  0  0  0
  4 11  1  0  0  0  0
  4 12  1  0  0  0  0
  5 37  1  0  0  0  0
  5 38  1  0  0  0  0
  6 25  1  0  0  0  0
  6 27  1  0  0  0  0
  6 48  1  0  0  0  0
  7  5  1  0  0  0  0
  7  8  1  0  0  0  0
  7  9  1  0  0  0  0
  7 28  1  6  0  0  0
  8 29  1  0  0  0  0
  8 30  1  0  0  0  0
  9 10  1  0  0  0  0
  9 31  1  0  0  0  0
  9 32  1  0  0  0  0
 10 11  1  0  0  0  0
 10 33  1  0  0  0  0
 10 34  1  0  0  0  0
 11 35  1  0  0  0  0
 11 36  1  0  0  0  0
 12 13  1  0  0  0  0
 12 14  2  0  0  0  0
 13 15  2  0  0  0  0
 13 16  1  0  0  0  0
 14 17  1  0  0  0  0
 14 18  1  0  0  0  0
 15 19  1  0  0  0  0
 15 39  1  0  0  0  0
 16 20  2  0  0  0  0
 16 21  1  0  0  0  0
 17 19  2  0  0  0  0
 17 40  1  0  0  0  0
 18 22  2  0  0  0  0
 18 41  1  0  0  0  0
 19 42  1  0  0  0  0
 20 23  1  0  0  0  0
 20 43  1  0  0  0  0
 21 24  2  0  0  0  0
 21 44  1  0  0  0  0
 22 25  1  0  0  0  0
 23 26  2  0  0  0  0
 23 45  1  0  0  0  0
 24 26  1  0  0  0  0
 24 46  1  0  0  0  0
 26 47  1  0  0  0  0
M  END
>  <PUBCHEM_COMPOUND_CID>
58423153

>  <PUBCHEM_COMPOUND_CANONICALIZED>
1

>  <PUBCHEM_CACTVS_COMPLEXITY>
602

>  <PUBCHEM_CACTVS_HBOND_ACCEPTOR>
5

>  <PUBCHEM_CACTVS_HBOND_DONOR>
2

>  <PUBCHEM_CACTVS_ROTATABLE_BOND>
3

>  <PUBCHEM_CACTVS_SUBSKEYS>
AAADceB7MABAAAAAAAAAAAAAAAAAAWAAAAA8YIAAAAAAAAABQAAAHgQQAAAADCjB2AQwwIPAAAiIAiVSUACCAABhABAIiIAIRMgIYCLAkZGUIAhglCDIyYcQgMAOgAACAAACAAAAAAQAAAQAAAAAAAAAAA==

>  <PUBCHEM_IUPAC_OPENEYE_NAME>
(5Z)-5-[[2-[(3R)-3-amino-1-piperidyl]-3-phenyl-phenyl]methylene]thiazolidine-2,4-dione

>  <PUBCHEM_IUPAC_CAS_NAME>
(5Z)-5-[[2-[(3R)-3-amino-1-piperidinyl]-3-phenylphenyl]methylidene]thiazolidine-2,4-dione

>  <PUBCHEM_IUPAC_NAME>
(5Z)-5-[[2-[(3R)-3-aminopiperidin-1-yl]-3-phenylphenyl]methylidene]-1,3-thiazolidine-2,4-dione

>  <PUBCHEM_IUPAC_SYSTEMATIC_NAME>
(5Z)-5-[[2-[(3R)-3-azanylpiperidin-1-yl]-3-phenyl-phenyl]methylidene]-1,3-thiazolidine-2,4-dione

>  <PUBCHEM_IUPAC_TRADITIONAL_NAME>
(5Z)-5-[2-[(3R)-3-aminopiperidino]-3-phenyl-benzylidene]thiazolidine-2,4-quinone

>  <PUBCHEM_IUPAC_INCHI>
InChI=1S/C21H21N3O2S/c22-16-9-5-11-24(13-16)19-15(12-18-20(25)23-21(26)27-18)8-4-10-17(19)14-6-2-1-3-7-14/h1-4,6-8,10,12,16H,5,9,11,13,22H2,(H,23,25,26)/b18-12-/t16-/m1/s1

>  <PUBCHEM_IUPAC_INCHIKEY>
MCUJKPPARUPFJM-UWCCDQBKSA-N

>  <PUBCHEM_XLOGP3_AA>
3.6

>  <PUBCHEM_EXACT_MASS>
379.135448

>  <PUBCHEM_MOLECULAR_FORMULA>
C21H21N3O2S

>  <PUBCHEM_MOLECULAR_WEIGHT>
379.47534

>  <PUBCHEM_OPENEYE_CAN_SMILES>
C1CC(CN(C1)C2=C(C=CC=C2C=C3C(=O)NC(=O)S3)C4=CC=CC=C4)N

>  <PUBCHEM_OPENEYE_ISO_SMILES>
C1C[C@H](CN(C1)C2=C(C=CC=C2/C=C\3/C(=O)NC(=O)S3)C4=CC=CC=C4)N

>  <PUBCHEM_CACTVS_TPSA>
101

>  <PUBCHEM_MONOISOTOPIC_WEIGHT>
379.135448

>  <PUBCHEM_TOTAL_CHARGE>
0

>  <PUBCHEM_HEAVY_ATOM_COUNT>
27

>  <PUBCHEM_ATOM_DEF_STEREO_COUNT>
1

>  <PUBCHEM_ATOM_UDEF_STEREO_COUNT>
0

>  <PUBCHEM_BOND_DEF_STEREO_COUNT>
1

>  <PUBCHEM_BOND_UDEF_STEREO_COUNT>
0

>  <PUBCHEM_ISOTOPIC_ATOM_COUNT>
0

>  <PUBCHEM_COMPONENT_COUNT>
1

>  <PUBCHEM_CACTVS_TAUTO_COUNT>
3

>  <PUBCHEM_COORDINATE_TYPE>
1
5
255

>  <PUBCHEM_BONDANNOTATIONS>
12  13  8
12  14  8
13  15  8
14  17  8
15  19  8
16  20  8
16  21  8
17  19  8
20  23  8
21  24  8
23  26  8
24  26  8
7  5  5

$$$$
