
 OpenBabel11121517312D

 50 54  0  0  0  0  0  0  0  0999 V2000
    7.1962    2.6970    0.0000 S   0  0  0  0  0  0  0  0  0  0  0  0
    8.1962    2.6970    0.0000 O   0  0  0  0  0  0  0  0  0  0  0  0
    6.1962    2.6970    0.0000 O   0  0  0  0  0  0  0  0  0  0  0  0
    2.0000    2.6970    0.0000 O   0  0  0  0  0  0  0  0  0  0  0  0
    6.3301    0.1970    0.0000 N   0  0  0  0  0  0  0  0  0  0  0  0
    3.7320    1.6970    0.0000 N   0  0  0  0  0  0  0  0  0  0  0  0
    4.5981    0.1970    0.0000 N   0  0  0  0  0  0  0  0  0  0  0  0
    7.2764   -3.1077    0.0000 N   0  0  0  0  0  0  0  0  0  0  0  0
    7.1962    1.6970    0.0000 C   0  0  0  0  0  0  0  0  0  0  0  0
    8.1962    1.6970    0.0000 C   0  0  0  0  0  0  0  0  0  0  0  0
    7.6962    0.8310    0.0000 C   0  0  0  0  0  0  0  0  0  0  0  0
    6.3301    1.1970    0.0000 C   0  0  0  0  0  0  0  0  0  0  0  0
    7.1962    3.6970    0.0000 C   0  0  0  0  0  0  0  0  0  0  0  0
    5.4641    1.6970    0.0000 C   0  0  0  0  0  0  0  0  0  0  0  0
    4.5981    1.1970    0.0000 C   0  0  0  0  0  0  0  0  0  0  0  0
    5.4641   -0.3030    0.0000 C   0  0  0  0  0  0  0  0  0  0  0  0
    2.8660    1.1970    0.0000 C   0  0  0  0  0  0  0  0  0  0  0  0
    3.7320    2.6970    0.0000 C   0  0  0  0  0  0  0  0  0  0  0  0
    5.4641   -1.3030    0.0000 C   0  0  0  0  0  0  0  0  0  0  0  0
    2.0000    1.6970    0.0000 C   0  0  0  0  0  0  0  0  0  0  0  0
    2.8660    3.1970    0.0000 C   0  0  0  0  0  0  0  0  0  0  0  0
    6.3301   -1.8030    0.0000 C   0  0  0  0  0  0  0  0  0  0  0  0
    4.5981   -1.8030    0.0000 C   0  0  0  0  0  0  0  0  0  0  0  0
    6.3301   -2.8030    0.0000 C   0  0  0  0  0  0  0  0  0  0  0  0
    7.2764   -1.4982    0.0000 C   0  0  0  0  0  0  0  0  0  0  0  0
    4.5981   -2.8030    0.0000 C   0  0  0  0  0  0  0  0  0  0  0  0
    5.4641   -3.3030    0.0000 C   0  0  0  0  0  0  0  0  0  0  0  0
    7.8600   -2.3030    0.0000 C   0  0  0  0  0  0  0  0  0  0  0  0
    8.7788    1.4850    0.0000 H   0  0  0  0  0  0  0  0  0  0  0  0
    8.3038    2.3076    0.0000 H   0  0  0  0  0  0  0  0  0  0  0  0
    7.2212    0.4325    0.0000 H   0  0  0  0  0  0  0  0  0  0  0  0
    8.1711    0.4325    0.0000 H   0  0  0  0  0  0  0  0  0  0  0  0
    7.8162    3.6970    0.0000 H   0  0  0  0  0  0  0  0  0  0  0  0
    7.1962    4.3170    0.0000 H   0  0  0  0  0  0  0  0  0  0  0  0
    6.5762    3.6970    0.0000 H   0  0  0  0  0  0  0  0  0  0  0  0
    5.4641    2.3170    0.0000 H   0  0  0  0  0  0  0  0  0  0  0  0
    4.3426    2.5894    0.0000 H   0  0  0  0  0  0  0  0  0  0  0  0
    3.9441    3.2796    0.0000 H   0  0  0  0  0  0  0  0  0  0  0  0
    2.4675    0.7221    0.0000 H   0  0  0  0  0  0  0  0  0  0  0  0
    3.2646    0.7221    0.0000 H   0  0  0  0  0  0  0  0  0  0  0  0
    3.2646    3.6720    0.0000 H   0  0  0  0  0  0  0  0  0  0  0  0
    2.4675    3.6720    0.0000 H   0  0  0  0  0  0  0  0  0  0  0  0
    1.3894    1.8047    0.0000 H   0  0  0  0  0  0  0  0  0  0  0  0
    1.7880    1.1144    0.0000 H   0  0  0  0  0  0  0  0  0  0  0  0
    4.0611   -1.4930    0.0000 H   0  0  0  0  0  0  0  0  0  0  0  0
    7.4690   -0.9089    0.0000 H   0  0  0  0  0  0  0  0  0  0  0  0
    4.0611   -3.1130    0.0000 H   0  0  0  0  0  0  0  0  0  0  0  0
    5.4641   -3.9230    0.0000 H   0  0  0  0  0  0  0  0  0  0  0  0
    7.4690   -3.6970    0.0000 H   0  0  0  0  0  0  0  0  0  0  0  0
    8.4800   -2.3030    0.0000 H   0  0  0  0  0  0  0  0  0  0  0  0
  1  2  2  0  0  0  0
  1  3  2  0  0  0  0
  1  9  1  0  0  0  0
  1 13  1  0  0  0  0
  4 20  1  0  0  0  0
  4 21  1  0  0  0  0
  5 12  1  0  0  0  0
  5 16  2  0  0  0  0
  6 15  1  0  0  0  0
  6 17  1  0  0  0  0
  6 18  1  0  0  0  0
  7 15  2  0  0  0  0
  7 16  1  0  0  0  0
  8 24  1  0  0  0  0
  8 28  1  0  0  0  0
  8 49  1  0  0  0  0
  9 10  1  0  0  0  0
  9 11  1  0  0  0  0
  9 12  1  0  0  0  0
 10 11  1  0  0  0  0
 10 29  1  0  0  0  0
 10 30  1  0  0  0  0
 11 31  1  0  0  0  0
 11 32  1  0  0  0  0
 12 14  2  0  0  0  0
 13 33  1  0  0  0  0
 13 34  1  0  0  0  0
 13 35  1  0  0  0  0
 14 15  1  0  0  0  0
 14 36  1  0  0  0  0
 16 19  1  0  0  0  0
 17 20  1  0  0  0  0
 17 39  1  0  0  0  0
 17 40  1  0  0  0  0
 18 21  1  0  0  0  0
 18 37  1  0  0  0  0
 18 38  1  0  0  0  0
 19 22  2  0  0  0  0
 19 23  1  0  0  0  0
 20 43  1  0  0  0  0
 20 44  1  0  0  0  0
 21 41  1  0  0  0  0
 21 42  1  0  0  0  0
 22 24  1  0  0  0  0
 22 25  1  0  0  0  0
 23 26  2  0  0  0  0
 23 45  1  0  0  0  0
 24 27  2  0  0  0  0
 25 28  2  0  0  0  0
 25 46  1  0  0  0  0
 26 27  1  0  0  0  0
 26 47  1  0  0  0  0
 27 48  1  0  0  0  0
 28 50  1  0  0  0  0
M  END
>  <PUBCHEM_COMPOUND_CID>
46244173

>  <PUBCHEM_COMPOUND_CANONICALIZED>
1

>  <PUBCHEM_CACTVS_COMPLEXITY>
671

>  <PUBCHEM_CACTVS_HBOND_ACCEPTOR>
6

>  <PUBCHEM_CACTVS_HBOND_DONOR>
1

>  <PUBCHEM_CACTVS_ROTATABLE_BOND>
4

>  <PUBCHEM_CACTVS_SUBSKEYS>
AAADceB7sABAAAAAAAAAAAAAGAAAAWAAAAA8WIAAAAAAAFgB/AAAHgQQAAAADAjh3wa/8PfJlAqgAzZnZHDCgCkxArAJ2aA4ZJiKKOLg2dGHJAhokALYyCcQgIAOgAAAQAASAAAAAACAACQAAAAAAAAAAA==

>  <PUBCHEM_IUPAC_OPENEYE_NAME>
4-[2-(1H-indol-4-yl)-6-(1-methylsulfonylcyclopropyl)pyrimidin-4-yl]morpholine

>  <PUBCHEM_IUPAC_CAS_NAME>
4-[2-(1H-indol-4-yl)-6-(1-methylsulfonylcyclopropyl)-4-pyrimidinyl]morpholine

>  <PUBCHEM_IUPAC_NAME>
4-[2-(1H-indol-4-yl)-6-(1-methylsulfonylcyclopropyl)pyrimidin-4-yl]morpholine

>  <PUBCHEM_IUPAC_SYSTEMATIC_NAME>
4-[2-(1H-indol-4-yl)-6-(1-methylsulfonylcyclopropyl)pyrimidin-4-yl]morpholine

>  <PUBCHEM_IUPAC_TRADITIONAL_NAME>
4-[2-(1H-indol-4-yl)-6-(1-mesylcyclopropyl)pyrimidin-4-yl]morpholine

>  <PUBCHEM_IUPAC_INCHI>
InChI=1S/C20H22N4O3S/c1-28(25,26)20(6-7-20)17-13-18(24-9-11-27-12-10-24)23-19(22-17)15-3-2-4-16-14(15)5-8-21-16/h2-5,8,13,21H,6-7,9-12H2,1H3

>  <PUBCHEM_IUPAC_INCHIKEY>
UUEAFRKZMCDHFV-UHFFFAOYSA-N

>  <PUBCHEM_XLOGP3_AA>
1.6

>  <PUBCHEM_EXACT_MASS>
398.141262

>  <PUBCHEM_MOLECULAR_FORMULA>
C20H22N4O3S

>  <PUBCHEM_MOLECULAR_WEIGHT>
398.47868

>  <PUBCHEM_OPENEYE_CAN_SMILES>
CS(=O)(=O)C1(CC1)C2=CC(=NC(=N2)C3=C4C=CNC4=CC=C3)N5CCOCC5

>  <PUBCHEM_OPENEYE_ISO_SMILES>
CS(=O)(=O)C1(CC1)C2=CC(=NC(=N2)C3=C4C=CNC4=CC=C3)N5CCOCC5

>  <PUBCHEM_CACTVS_TPSA>
96.6

>  <PUBCHEM_MONOISOTOPIC_WEIGHT>
398.141262

>  <PUBCHEM_TOTAL_CHARGE>
0

>  <PUBCHEM_HEAVY_ATOM_COUNT>
28

>  <PUBCHEM_ATOM_DEF_STEREO_COUNT>
0

>  <PUBCHEM_ATOM_UDEF_STEREO_COUNT>
0

>  <PUBCHEM_BOND_DEF_STEREO_COUNT>
0

>  <PUBCHEM_BOND_UDEF_STEREO_COUNT>
0

>  <PUBCHEM_ISOTOPIC_ATOM_COUNT>
0

>  <PUBCHEM_COMPONENT_COUNT>
1

>  <PUBCHEM_CACTVS_TAUTO_COUNT>
3

>  <PUBCHEM_COORDINATE_TYPE>
1
5
255

>  <PUBCHEM_BONDANNOTATIONS>
12  14  8
14  15  8
19  22  8
19  23  8
22  24  8
22  25  8
23  26  8
24  27  8
25  28  8
26  27  8
5  12  8
5  16  8
7  15  8
7  16  8
8  24  8
8  28  8

$$$$
