
 OpenBabel11121517312D

 58 61  0  0  0  0  0  0  0  0999 V2000
   13.2399   -3.5272    0.0000 Cl  0  0  0  0  0  0  0  0  0  0  0  0
   11.5195   -2.5072    0.0000 F   0  0  0  0  0  0  0  0  0  0  0  0
    8.0622    0.5272    0.0000 O   0  0  0  0  0  0  0  0  0  0  0  0
    3.7320    1.0272    0.0000 O   0  0  0  0  0  0  0  0  0  0  0  0
    8.0622    2.5272    0.0000 O   0  0  0  0  0  0  0  0  0  0  0  0
    5.4641    2.0272    0.0000 N   0  0  0  0  0  0  0  0  0  0  0  0
    2.8660    2.5272    0.0000 N   0  0  0  0  0  0  0  0  0  0  0  0
   11.5542    2.5619    0.0000 N   0  0  0  0  0  0  0  0  0  0  0  0
   11.5426   -0.5074    0.0000 N   0  0  0  0  0  0  0  0  0  0  0  0
   12.4603    1.0064    0.0000 N   0  0  0  0  0  0  0  0  0  0  0  0
    7.1962    1.0272    0.0000 C   0  0  0  0  0  0  0  0  0  0  0  0
    7.1962    2.0272    0.0000 C   0  0  0  0  0  0  0  0  0  0  0  0
    6.3301    0.5272    0.0000 C   0  0  0  0  0  0  0  0  0  0  0  0
    5.4641    1.0272    0.0000 C   0  0  0  0  0  0  0  0  0  0  0  0
    6.3301    2.5272    0.0000 C   0  0  0  0  0  0  0  0  0  0  0  0
    4.5981    2.5272    0.0000 C   0  0  0  0  0  0  0  0  0  0  0  0
    8.9282    1.0272    0.0000 C   0  0  0  0  0  0  0  0  0  0  0  0
    3.7320    2.0272    0.0000 C   0  0  0  0  0  0  0  0  0  0  0  0
    9.7942    0.5272    0.0000 C   0  0  0  0  0  0  0  0  0  0  0  0
    8.9282    2.0272    0.0000 C   0  0  0  0  0  0  0  0  0  0  0  0
   10.6603    1.0272    0.0000 C   0  0  0  0  0  0  0  0  0  0  0  0
    9.7942    2.5272    0.0000 C   0  0  0  0  0  0  0  0  0  0  0  0
   10.6603    2.0272    0.0000 C   0  0  0  0  0  0  0  0  0  0  0  0
   11.5542    0.4926    0.0000 C   0  0  0  0  0  0  0  0  0  0  0  0
    2.0000    2.0272    0.0000 C   0  0  0  0  0  0  0  0  0  0  0  0
   12.4603    2.0480    0.0000 C   0  0  0  0  0  0  0  0  0  0  0  0
    8.0622    3.5272    0.0000 C   0  0  0  0  0  0  0  0  0  0  0  0
   12.4028   -1.0174    0.0000 C   0  0  0  0  0  0  0  0  0  0  0  0
   12.3913   -2.0173    0.0000 C   0  0  0  0  0  0  0  0  0  0  0  0
   13.2746   -0.5274    0.0000 C   0  0  0  0  0  0  0  0  0  0  0  0
   13.2514   -2.5273    0.0000 C   0  0  0  0  0  0  0  0  0  0  0  0
   14.1348   -1.0374    0.0000 C   0  0  0  0  0  0  0  0  0  0  0  0
   14.1232   -2.0373    0.0000 C   0  0  0  0  0  0  0  0  0  0  0  0
    7.7331    1.3372    0.0000 H   0  0  0  0  0  0  0  0  0  0  0  0
    5.9316    0.0523    0.0000 H   0  0  0  0  0  0  0  0  0  0  0  0
    6.7287    0.0523    0.0000 H   0  0  0  0  0  0  0  0  0  0  0  0
    7.8067    1.9196    0.0000 H   0  0  0  0  0  0  0  0  0  0  0  0
    7.4082    2.6098    0.0000 H   0  0  0  0  0  0  0  0  0  0  0  0
    4.8535    1.1349    0.0000 H   0  0  0  0  0  0  0  0  0  0  0  0
    5.2520    0.4446    0.0000 H   0  0  0  0  0  0  0  0  0  0  0  0
    6.7287    3.0022    0.0000 H   0  0  0  0  0  0  0  0  0  0  0  0
    5.9316    3.0022    0.0000 H   0  0  0  0  0  0  0  0  0  0  0  0
    4.9966    3.0022    0.0000 H   0  0  0  0  0  0  0  0  0  0  0  0
    4.1996    3.0022    0.0000 H   0  0  0  0  0  0  0  0  0  0  0  0
    9.7942   -0.0928    0.0000 H   0  0  0  0  0  0  0  0  0  0  0  0
    2.8660    3.1472    0.0000 H   0  0  0  0  0  0  0  0  0  0  0  0
    9.7942    3.1472    0.0000 H   0  0  0  0  0  0  0  0  0  0  0  0
    1.6900    2.5642    0.0000 H   0  0  0  0  0  0  0  0  0  0  0  0
    1.4631    1.7172    0.0000 H   0  0  0  0  0  0  0  0  0  0  0  0
    2.3100    1.4903    0.0000 H   0  0  0  0  0  0  0  0  0  0  0  0
   11.0021   -0.8112    0.0000 H   0  0  0  0  0  0  0  0  0  0  0  0
   12.9960    2.3601    0.0000 H   0  0  0  0  0  0  0  0  0  0  0  0
    8.6822    3.5272    0.0000 H   0  0  0  0  0  0  0  0  0  0  0  0
    8.0622    4.1472    0.0000 H   0  0  0  0  0  0  0  0  0  0  0  0
    7.4422    3.5272    0.0000 H   0  0  0  0  0  0  0  0  0  0  0  0
   13.2817    0.0925    0.0000 H   0  0  0  0  0  0  0  0  0  0  0  0
   14.6752   -0.7336    0.0000 H   0  0  0  0  0  0  0  0  0  0  0  0
   14.6565   -2.3535    0.0000 H   0  0  0  0  0  0  0  0  0  0  0  0
  1 31  1  0  0  0  0
  2 29  1  0  0  0  0
  3 11  1  0  0  0  0
  3 17  1  0  0  0  0
  4 18  2  0  0  0  0
  5 20  1  0  0  0  0
  5 27  1  0  0  0  0
  6 14  1  0  0  0  0
  6 15  1  0  0  0  0
  6 16  1  0  0  0  0
  7 18  1  0  0  0  0
  7 25  1  0  0  0  0
  7 46  1  0  0  0  0
  8 23  1  0  0  0  0
  8 26  2  0  0  0  0
  9 24  1  0  0  0  0
  9 28  1  0  0  0  0
  9 51  1  0  0  0  0
 10 24  2  0  0  0  0
 10 26  1  0  0  0  0
 11 12  1  0  0  0  0
 11 13  1  0  0  0  0
 11 34  1  0  0  0  0
 12 15  1  0  0  0  0
 12 37  1  0  0  0  0
 12 38  1  0  0  0  0
 13 14  1  0  0  0  0
 13 35  1  0  0  0  0
 13 36  1  0  0  0  0
 14 39  1  0  0  0  0
 14 40  1  0  0  0  0
 15 41  1  0  0  0  0
 15 42  1  0  0  0  0
 16 18  1  0  0  0  0
 16 43  1  0  0  0  0
 16 44  1  0  0  0  0
 17 19  1  0  0  0  0
 17 20  2  0  0  0  0
 19 21  2  0  0  0  0
 19 45  1  0  0  0  0
 20 22  1  0  0  0  0
 21 23  1  0  0  0  0
 21 24  1  0  0  0  0
 22 23  2  0  0  0  0
 22 47  1  0  0  0  0
 25 48  1  0  0  0  0
 25 49  1  0  0  0  0
 25 50  1  0  0  0  0
 26 52  1  0  0  0  0
 27 53  1  0  0  0  0
 27 54  1  0  0  0  0
 27 55  1  0  0  0  0
 28 29  2  0  0  0  0
 28 30  1  0  0  0  0
 29 31  1  0  0  0  0
 30 32  2  0  0  0  0
 30 56  1  0  0  0  0
 31 33  2  0  0  0  0
 32 33  1  0  0  0  0
 32 57  1  0  0  0  0
 33 58  1  0  0  0  0
M  END
>  <PUBCHEM_COMPOUND_CID>
11488320

>  <PUBCHEM_COMPOUND_CANONICALIZED>
1

>  <PUBCHEM_CACTVS_COMPLEXITY>
641

>  <PUBCHEM_CACTVS_HBOND_ACCEPTOR>
8

>  <PUBCHEM_CACTVS_HBOND_DONOR>
2

>  <PUBCHEM_CACTVS_ROTATABLE_BOND>
7

>  <PUBCHEM_CACTVS_SUBSKEYS>
AAADceB7sQAEAAAAAAAAAAAAAAAAAAAAAAA8eIEAAAAAAACx9AAAHwIQAAAADB7hni439vfIFACoAydzdACCiCkxJ6AJ2KC+7piNbuLF+/uWPCru0hvK6Cew0BMOIEABAgICQABAgAIEBASAAAAAAAAAAA==

>  <PUBCHEM_IUPAC_OPENEYE_NAME>
2-[4-[4-(3-chloro-2-fluoro-anilino)-7-methoxy-quinazolin-6-yl]oxy-1-piperidyl]-N-methyl-acetamide

>  <PUBCHEM_IUPAC_CAS_NAME>
2-[4-[[4-(3-chloro-2-fluoroanilino)-7-methoxy-6-quinazolinyl]oxy]-1-piperidinyl]-N-methylacetamide

>  <PUBCHEM_IUPAC_NAME>
2-[4-[4-(3-chloro-2-fluoroanilino)-7-methoxyquinazolin-6-yl]oxypiperidin-1-yl]-N-methylacetamide

>  <PUBCHEM_IUPAC_SYSTEMATIC_NAME>
2-[4-[4-[(3-chloranyl-2-fluoranyl-phenyl)amino]-7-methoxy-quinazolin-6-yl]oxypiperidin-1-yl]-N-methyl-ethanamide

>  <PUBCHEM_IUPAC_TRADITIONAL_NAME>
2-[4-[4-(3-chloro-2-fluoro-anilino)-7-methoxy-quinazolin-6-yl]oxypiperidino]-N-methyl-acetamide

>  <PUBCHEM_IUPAC_INCHI>
InChI=1S/C23H25ClFN5O3/c1-26-21(31)12-30-8-6-14(7-9-30)33-20-10-15-18(11-19(20)32-2)27-13-28-23(15)29-17-5-3-4-16(24)22(17)25/h3-5,10-11,13-14H,6-9,12H2,1-2H3,(H,26,31)(H,27,28,29)

>  <PUBCHEM_IUPAC_INCHIKEY>
DFJSJLGUIXFDJP-UHFFFAOYSA-N

>  <PUBCHEM_XLOGP3_AA>
4

>  <PUBCHEM_EXACT_MASS>
473.162996

>  <PUBCHEM_MOLECULAR_FORMULA>
C23H25ClFN5O3

>  <PUBCHEM_MOLECULAR_WEIGHT>
473.927703

>  <PUBCHEM_OPENEYE_CAN_SMILES>
CNC(=O)CN1CCC(CC1)OC2=C(C=C3C(=C2)C(=NC=N3)NC4=C(C(=CC=C4)Cl)F)OC

>  <PUBCHEM_OPENEYE_ISO_SMILES>
CNC(=O)CN1CCC(CC1)OC2=C(C=C3C(=C2)C(=NC=N3)NC4=C(C(=CC=C4)Cl)F)OC

>  <PUBCHEM_CACTVS_TPSA>
88.6

>  <PUBCHEM_MONOISOTOPIC_WEIGHT>
473.162996

>  <PUBCHEM_TOTAL_CHARGE>
0

>  <PUBCHEM_HEAVY_ATOM_COUNT>
33

>  <PUBCHEM_ATOM_DEF_STEREO_COUNT>
0

>  <PUBCHEM_ATOM_UDEF_STEREO_COUNT>
0

>  <PUBCHEM_BOND_DEF_STEREO_COUNT>
0

>  <PUBCHEM_BOND_UDEF_STEREO_COUNT>
0

>  <PUBCHEM_ISOTOPIC_ATOM_COUNT>
0

>  <PUBCHEM_COMPONENT_COUNT>
1

>  <PUBCHEM_CACTVS_TAUTO_COUNT>
6

>  <PUBCHEM_COORDINATE_TYPE>
1
5
255

>  <PUBCHEM_BONDANNOTATIONS>
10  24  8
10  26  8
17  19  8
17  20  8
19  21  8
20  22  8
21  23  8
21  24  8
22  23  8
28  29  8
28  30  8
29  31  8
30  32  8
31  33  8
32  33  8
8  23  8
8  26  8

$$$$
