
 OpenBabel11121517312D

 60 64  0  0  0  0  0  0  0  0999 V2000
    3.3426   -2.7349    0.0000 F   0  0  0  0  0  0  0  0  0  0  0  0
   10.7204    5.9004    0.0000 O   0  0  0  0  0  0  0  0  0  0  0  0
    9.2136   -1.4976    0.0000 O   0  0  0  0  0  0  0  0  0  0  0  0
    9.1206    3.7931    0.0000 N   0  0  0  0  0  0  0  0  0  0  0  0
    8.4993    1.8921    0.0000 N   0  0  0  0  0  0  0  0  0  0  0  0
    7.2566   -1.9100    0.0000 N   0  0  0  0  0  0  0  0  0  0  0  0
    3.7320   -4.5282    0.0000 N   0  0  0  0  0  0  0  0  0  0  0  0
    5.9674   -3.0668    0.0000 N   0  0  0  0  0  0  0  0  0  0  0  0
    5.6103   -1.3719    0.0000 N   0  0  0  0  0  0  0  0  0  0  0  0
    4.6783   -5.8330    0.0000 N   0  0  0  0  0  0  0  0  0  0  0  0
    8.1421    3.5869    0.0000 C   0  0  0  0  0  0  0  0  0  0  0  0
    9.7884    3.0488    0.0000 C   0  0  0  0  0  0  0  0  0  0  0  0
    9.4778    2.0983    0.0000 C   0  0  0  0  0  0  0  0  0  0  0  0
    7.8314    2.6364    0.0000 C   0  0  0  0  0  0  0  0  0  0  0  0
    9.4312    4.7436    0.0000 C   0  0  0  0  0  0  0  0  0  0  0  0
    8.1886    0.9415    0.0000 C   0  0  0  0  0  0  0  0  0  0  0  0
   10.4097    4.9498    0.0000 C   0  0  0  0  0  0  0  0  0  0  0  0
    8.8564    0.1972    0.0000 C   0  0  0  0  0  0  0  0  0  0  0  0
    7.2101    0.7353    0.0000 C   0  0  0  0  0  0  0  0  0  0  0  0
    8.5458   -0.7533    0.0000 C   0  0  0  0  0  0  0  0  0  0  0  0
    6.8994   -0.2152    0.0000 C   0  0  0  0  0  0  0  0  0  0  0  0
    7.5673   -0.9595    0.0000 C   0  0  0  0  0  0  0  0  0  0  0  0
    6.2781   -2.1162    0.0000 C   0  0  0  0  0  0  0  0  0  0  0  0
    4.6783   -4.2235    0.0000 C   0  0  0  0  0  0  0  0  0  0  0  0
    4.9889   -3.2730    0.0000 C   0  0  0  0  0  0  0  0  0  0  0  0
   10.1921   -1.2914    0.0000 C   0  0  0  0  0  0  0  0  0  0  0  0
    3.7320   -5.5282    0.0000 C   0  0  0  0  0  0  0  0  0  0  0  0
    5.2619   -5.0282    0.0000 C   0  0  0  0  0  0  0  0  0  0  0  0
    2.8660   -4.0282    0.0000 C   0  0  0  0  0  0  0  0  0  0  0  0
    4.3211   -2.5287    0.0000 C   0  0  0  0  0  0  0  0  0  0  0  0
    2.8660   -6.0282    0.0000 C   0  0  0  0  0  0  0  0  0  0  0  0
    4.6318   -1.5782    0.0000 C   0  0  0  0  0  0  0  0  0  0  0  0
    2.0000   -4.5282    0.0000 C   0  0  0  0  0  0  0  0  0  0  0  0
    2.0000   -5.5282    0.0000 C   0  0  0  0  0  0  0  0  0  0  0  0
   10.3353    2.7568    0.0000 H   0  0  0  0  0  0  0  0  0  0  0  0
   10.1710    3.5367    0.0000 H   0  0  0  0  0  0  0  0  0  0  0  0
    8.1215    4.2066    0.0000 H   0  0  0  0  0  0  0  0  0  0  0  0
    7.5283    3.6742    0.0000 H   0  0  0  0  0  0  0  0  0  0  0  0
    7.2845    2.9284    0.0000 H   0  0  0  0  0  0  0  0  0  0  0  0
    7.4489    2.1485    0.0000 H   0  0  0  0  0  0  0  0  0  0  0  0
    9.4983    1.4786    0.0000 H   0  0  0  0  0  0  0  0  0  0  0  0
   10.0916    2.0109    0.0000 H   0  0  0  0  0  0  0  0  0  0  0  0
    9.4107    5.3633    0.0000 H   0  0  0  0  0  0  0  0  0  0  0  0
    8.8174    4.8310    0.0000 H   0  0  0  0  0  0  0  0  0  0  0  0
   10.4303    4.3302    0.0000 H   0  0  0  0  0  0  0  0  0  0  0  0
   11.0236    4.8625    0.0000 H   0  0  0  0  0  0  0  0  0  0  0  0
    9.4631    0.3251    0.0000 H   0  0  0  0  0  0  0  0  0  0  0  0
    6.7960    1.1968    0.0000 H   0  0  0  0  0  0  0  0  0  0  0  0
    6.2928   -0.3430    0.0000 H   0  0  0  0  0  0  0  0  0  0  0  0
   11.3271    6.0282    0.0000 H   0  0  0  0  0  0  0  0  0  0  0  0
    7.6707   -2.3715    0.0000 H   0  0  0  0  0  0  0  0  0  0  0  0
   10.3200   -1.8980    0.0000 H   0  0  0  0  0  0  0  0  0  0  0  0
   10.7988   -1.1635    0.0000 H   0  0  0  0  0  0  0  0  0  0  0  0
   10.0643   -0.6847    0.0000 H   0  0  0  0  0  0  0  0  0  0  0  0
    5.8819   -5.0282    0.0000 H   0  0  0  0  0  0  0  0  0  0  0  0
    2.8660   -3.4082    0.0000 H   0  0  0  0  0  0  0  0  0  0  0  0
    2.8660   -6.6482    0.0000 H   0  0  0  0  0  0  0  0  0  0  0  0
    4.2177   -1.1167    0.0000 H   0  0  0  0  0  0  0  0  0  0  0  0
    1.4631   -4.2182    0.0000 H   0  0  0  0  0  0  0  0  0  0  0  0
    1.4631   -5.8382    0.0000 H   0  0  0  0  0  0  0  0  0  0  0  0
  1 30  1  0  0  0  0
  2 17  1  0  0  0  0
  2 50  1  0  0  0  0
  3 20  1  0  0  0  0
  3 26  1  0  0  0  0
  4 11  1  0  0  0  0
  4 12  1  0  0  0  0
  4 15  1  0  0  0  0
  5 13  1  0  0  0  0
  5 14  1  0  0  0  0
  5 16  1  0  0  0  0
  6 22  1  0  0  0  0
  6 23  1  0  0  0  0
  6 51  1  0  0  0  0
  7 24  1  0  0  0  0
  7 27  1  0  0  0  0
  7 29  1  0  0  0  0
  8 23  1  0  0  0  0
  8 25  2  0  0  0  0
  9 23  2  0  0  0  0
  9 32  1  0  0  0  0
 10 27  2  0  0  0  0
 10 28  1  0  0  0  0
 11 14  1  0  0  0  0
 11 37  1  0  0  0  0
 11 38  1  0  0  0  0
 12 13  1  0  0  0  0
 12 35  1  0  0  0  0
 12 36  1  0  0  0  0
 13 41  1  0  0  0  0
 13 42  1  0  0  0  0
 14 39  1  0  0  0  0
 14 40  1  0  0  0  0
 15 17  1  0  0  0  0
 15 43  1  0  0  0  0
 15 44  1  0  0  0  0
 16 18  2  0  0  0  0
 16 19  1  0  0  0  0
 17 45  1  0  0  0  0
 17 46  1  0  0  0  0
 18 20  1  0  0  0  0
 18 47  1  0  0  0  0
 19 21  2  0  0  0  0
 19 48  1  0  0  0  0
 20 22  2  0  0  0  0
 21 22  1  0  0  0  0
 21 49  1  0  0  0  0
 24 25  1  0  0  0  0
 24 28  2  0  0  0  0
 25 30  1  0  0  0  0
 26 52  1  0  0  0  0
 26 53  1  0  0  0  0
 26 54  1  0  0  0  0
 27 31  1  0  0  0  0
 28 55  1  0  0  0  0
 29 33  2  0  0  0  0
 29 56  1  0  0  0  0
 30 32  2  0  0  0  0
 31 34  2  0  0  0  0
 31 57  1  0  0  0  0
 32 58  1  0  0  0  0
 33 34  1  0  0  0  0
 33 59  1  0  0  0  0
 34 60  1  0  0  0  0
M  END
>  <PUBCHEM_COMPOUND_CID>
68591670

>  <PUBCHEM_COMPOUND_CANONICALIZED>
1

>  <PUBCHEM_CACTVS_COMPLEXITY>
640

>  <PUBCHEM_CACTVS_HBOND_ACCEPTOR>
9

>  <PUBCHEM_CACTVS_HBOND_DONOR>
2

>  <PUBCHEM_CACTVS_ROTATABLE_BOND>
7

>  <PUBCHEM_CACTVS_SUBSKEYS>
AAADceB7sQAAAAAAAAAAAAAAAAAAAWAAAAA8WLEAAAAAAFgB/AAAHwAQCAAACAzhlw4/9p/MHgCgATZnZACCiC0xMqAJ2CA/fJiOfuLE+duVNChu0BvY6CeQUAMAAACAAgAAEAAAAQAEAAAgAAAAAAAAAA==

>  <PUBCHEM_IUPAC_OPENEYE_NAME>
2-[4-[4-[(5-fluoro-4-imidazo[1,2-a]pyridin-3-yl-pyrimidin-2-yl)amino]-3-methoxy-phenyl]piperazin-1-yl]ethanol

>  <PUBCHEM_IUPAC_CAS_NAME>
2-[4-[4-[[5-fluoro-4-(3-imidazo[1,2-a]pyridinyl)-2-pyrimidinyl]amino]-3-methoxyphenyl]-1-piperazinyl]ethanol

>  <PUBCHEM_IUPAC_NAME>
2-[4-[4-[(5-fluoro-4-imidazo[1,2-a]pyridin-3-ylpyrimidin-2-yl)amino]-3-methoxyphenyl]piperazin-1-yl]ethanol

>  <PUBCHEM_IUPAC_SYSTEMATIC_NAME>
2-[4-[4-[(5-fluoranyl-4-imidazo[1,2-a]pyridin-3-yl-pyrimidin-2-yl)amino]-3-methoxy-phenyl]piperazin-1-yl]ethanol

>  <PUBCHEM_IUPAC_TRADITIONAL_NAME>
2-[4-[4-[(5-fluoro-4-imidazo[1,2-a]pyridin-3-yl-pyrimidin-2-yl)amino]-3-methoxy-phenyl]piperazino]ethanol

>  <PUBCHEM_IUPAC_INCHI>
InChI=1S/C24H26FN7O2/c1-34-21-14-17(31-10-8-30(9-11-31)12-13-33)5-6-19(21)28-24-27-15-18(25)23(29-24)20-16-26-22-4-2-3-7-32(20)22/h2-7,14-16,33H,8-13H2,1H3,(H,27,28,29)

>  <PUBCHEM_IUPAC_INCHIKEY>
BUBOMCNDHPTLAH-UHFFFAOYSA-N

>  <PUBCHEM_XLOGP3_AA>
2.9

>  <PUBCHEM_EXACT_MASS>
463.213201

>  <PUBCHEM_MOLECULAR_FORMULA>
C24H26FN7O2

>  <PUBCHEM_MOLECULAR_WEIGHT>
463.507343

>  <PUBCHEM_OPENEYE_CAN_SMILES>
COC1=C(C=CC(=C1)N2CCN(CC2)CCO)NC3=NC=C(C(=N3)C4=CN=C5N4C=CC=C5)F

>  <PUBCHEM_OPENEYE_ISO_SMILES>
COC1=C(C=CC(=C1)N2CCN(CC2)CCO)NC3=NC=C(C(=N3)C4=CN=C5N4C=CC=C5)F

>  <PUBCHEM_CACTVS_TPSA>
91

>  <PUBCHEM_MONOISOTOPIC_WEIGHT>
463.213201

>  <PUBCHEM_TOTAL_CHARGE>
0

>  <PUBCHEM_HEAVY_ATOM_COUNT>
34

>  <PUBCHEM_ATOM_DEF_STEREO_COUNT>
0

>  <PUBCHEM_ATOM_UDEF_STEREO_COUNT>
0

>  <PUBCHEM_BOND_DEF_STEREO_COUNT>
0

>  <PUBCHEM_BOND_UDEF_STEREO_COUNT>
0

>  <PUBCHEM_ISOTOPIC_ATOM_COUNT>
0

>  <PUBCHEM_COMPONENT_COUNT>
1

>  <PUBCHEM_CACTVS_TAUTO_COUNT>
3

>  <PUBCHEM_COORDINATE_TYPE>
1
5
255

>  <PUBCHEM_BONDANNOTATIONS>
10  27  8
10  28  8
16  18  8
16  19  8
18  20  8
19  21  8
20  22  8
21  22  8
24  28  8
25  30  8
27  31  8
29  33  8
30  32  8
31  34  8
33  34  8
7  24  8
7  27  8
7  29  8
8  23  8
8  25  8
9  23  8
9  32  8

$$$$
