
 OpenBabel11121517312D

 49 53  0  0  1  0  0  0  0  0999 V2000
    8.0785   -3.3220    0.0000 F   0  0  0  0  0  0  0  0  0  0  0  0
    6.3301   -3.2874    0.0000 O   0  0  0  0  0  0  0  0  0  0  0  0
    5.4641   -1.7874    0.0000 N   0  0  0  0  0  0  0  0  0  0  0  0
    4.5981    0.7126    0.0000 N   0  0  0  0  0  0  0  0  0  0  0  0
    6.3301   -0.2874    0.0000 N   0  0  0  0  0  0  0  0  0  0  0  0
    2.8660    0.7126    0.0000 N   0  0  0  0  0  0  0  0  0  0  0  0
    4.4691    2.8796    0.0000 N   0  0  0  0  0  0  0  0  0  0  0  0
    3.0752    3.6844    0.0000 N   0  0  0  0  0  0  0  0  0  0  0  0
    2.0000    2.2126    0.0000 N   0  0  0  0  0  0  0  0  0  0  0  0
    4.5981   -0.2874    0.0000 C   0  0  2  0  0  0  0  0  0  0  0  0
    5.4641   -0.7874    0.0000 C   0  0  0  0  0  0  0  0  0  0  0  0
    3.7320   -0.7874    0.0000 C   0  0  0  0  0  0  0  0  0  0  0  0
    6.3301   -2.2874    0.0000 C   0  0  0  0  0  0  0  0  0  0  0  0
    7.1962   -1.7874    0.0000 C   0  0  0  0  0  0  0  0  0  0  0  0
    7.1962   -0.7874    0.0000 C   0  0  0  0  0  0  0  0  0  0  0  0
    2.8660   -0.2874    0.0000 C   0  0  0  0  0  0  0  0  0  0  0  0
    4.5981   -2.2874    0.0000 C   0  0  0  0  0  0  0  0  0  0  0  0
    3.7320    1.2126    0.0000 C   0  0  0  0  0  0  0  0  0  0  0  0
    3.7320    2.2126    0.0000 C   0  0  0  0  0  0  0  0  0  0  0  0
    8.0901   -2.3221    0.0000 C   0  0  0  0  0  0  0  0  0  0  0  0
    8.0901   -0.2528    0.0000 C   0  0  0  0  0  0  0  0  0  0  0  0
    3.7320   -1.7874    0.0000 C   0  0  0  0  0  0  0  0  0  0  0  0
    4.5981   -3.2874    0.0000 C   0  0  0  0  0  0  0  0  0  0  0  0
    2.8660    2.7126    0.0000 C   0  0  0  0  0  0  0  0  0  0  0  0
    8.9962   -1.8082    0.0000 C   0  0  0  0  0  0  0  0  0  0  0  0
    8.9962   -0.7666    0.0000 C   0  0  0  0  0  0  0  0  0  0  0  0
    2.8660   -2.2874    0.0000 C   0  0  0  0  0  0  0  0  0  0  0  0
    3.7320   -3.7874    0.0000 C   0  0  0  0  0  0  0  0  0  0  0  0
    2.8660   -3.2874    0.0000 C   0  0  0  0  0  0  0  0  0  0  0  0
    4.0640    3.7874    0.0000 C   0  0  0  0  0  0  0  0  0  0  0  0
    2.0000    1.2126    0.0000 C   0  0  0  0  0  0  0  0  0  0  0  0
    5.1350    0.0226    0.0000 H   0  0  0  0  0  0  0  0  0  0  0  0
    3.3335   -1.2624    0.0000 H   0  0  0  0  0  0  0  0  0  0  0  0
    4.1306   -1.2624    0.0000 H   0  0  0  0  0  0  0  0  0  0  0  0
    5.1350    1.0226    0.0000 H   0  0  0  0  0  0  0  0  0  0  0  0
    3.1760    0.2495    0.0000 H   0  0  0  0  0  0  0  0  0  0  0  0
    2.3291    0.0226    0.0000 H   0  0  0  0  0  0  0  0  0  0  0  0
    2.5560   -0.8244    0.0000 H   0  0  0  0  0  0  0  0  0  0  0  0
    8.0829    0.3672    0.0000 H   0  0  0  0  0  0  0  0  0  0  0  0
    3.7320   -1.1674    0.0000 H   0  0  0  0  0  0  0  0  0  0  0  0
    5.1350   -3.5974    0.0000 H   0  0  0  0  0  0  0  0  0  0  0  0
    9.5319   -2.1203    0.0000 H   0  0  0  0  0  0  0  0  0  0  0  0
    9.5319   -0.4546    0.0000 H   0  0  0  0  0  0  0  0  0  0  0  0
    5.0757    2.7518    0.0000 H   0  0  0  0  0  0  0  0  0  0  0  0
    2.3291   -1.9774    0.0000 H   0  0  0  0  0  0  0  0  0  0  0  0
    3.7320   -4.4074    0.0000 H   0  0  0  0  0  0  0  0  0  0  0  0
    2.3291   -3.5974    0.0000 H   0  0  0  0  0  0  0  0  0  0  0  0
    4.3740    4.3244    0.0000 H   0  0  0  0  0  0  0  0  0  0  0  0
    1.4631    0.9026    0.0000 H   0  0  0  0  0  0  0  0  0  0  0  0
  1 20  1  0  0  0  0
  2 13  2  0  0  0  0
  3 11  1  0  0  0  0
  3 13  1  0  0  0  0
  3 17  1  0  0  0  0
  4 18  1  0  0  0  0
  4 35  1  0  0  0  0
  5 11  2  0  0  0  0
  5 15  1  0  0  0  0
  6 18  2  0  0  0  0
  6 31  1  0  0  0  0
  7 19  1  0  0  0  0
  7 30  1  0  0  0  0
  7 44  1  0  0  0  0
  8 24  1  0  0  0  0
  8 30  2  0  0  0  0
  9 24  1  0  0  0  0
  9 31  2  0  0  0  0
 10  4  1  0  0  0  0
 10 11  1  0  0  0  0
 10 12  1  0  0  0  0
 10 32  1  1  0  0  0
 12 16  1  0  0  0  0
 12 33  1  0  0  0  0
 12 34  1  0  0  0  0
 13 14  1  0  0  0  0
 14 15  2  0  0  0  0
 14 20  1  0  0  0  0
 15 21  1  0  0  0  0
 16 36  1  0  0  0  0
 16 37  1  0  0  0  0
 16 38  1  0  0  0  0
 17 22  2  0  0  0  0
 17 23  1  0  0  0  0
 18 19  1  0  0  0  0
 19 24  2  0  0  0  0
 20 25  2  0  0  0  0
 21 26  2  0  0  0  0
 21 39  1  0  0  0  0
 22 27  1  0  0  0  0
 22 40  1  0  0  0  0
 23 28  2  0  0  0  0
 23 41  1  0  0  0  0
 25 26  1  0  0  0  0
 25 42  1  0  0  0  0
 26 43  1  0  0  0  0
 27 29  2  0  0  0  0
 27 45  1  0  0  0  0
 28 29  1  0  0  0  0
 28 46  1  0  0  0  0
 29 47  1  0  0  0  0
 30 48  1  0  0  0  0
 31 49  1  0  0  0  0
M  END
>  <PUBCHEM_COMPOUND_CID>
11625818

>  <PUBCHEM_COMPOUND_CANONICALIZED>
1

>  <PUBCHEM_CACTVS_COMPLEXITY>
685

>  <PUBCHEM_CACTVS_HBOND_ACCEPTOR>
7

>  <PUBCHEM_CACTVS_HBOND_DONOR>
2

>  <PUBCHEM_CACTVS_ROTATABLE_BOND>
5

>  <PUBCHEM_CACTVS_SUBSKEYS>
AAADceB7oQAAAAAAAAAAAAAAAAAAAWAAAAA8YIEAAAAAAFiB/AAAHwAQAAAADCjBnww38L/JkACoAydzdACCgC21EqAJ2aE4dNiIaDrA3dGUJYholALIyWcYiACOAAAAAAACAAAAAAAAAAQAAAAAAAAAAA==

>  <PUBCHEM_IUPAC_OPENEYE_NAME>
5-fluoro-3-phenyl-2-[(1S)-1-(7H-purin-6-ylamino)propyl]quinazolin-4-one

>  <PUBCHEM_IUPAC_CAS_NAME>
5-fluoro-3-phenyl-2-[(1S)-1-(7H-purin-6-ylamino)propyl]-4-quinazolinone

>  <PUBCHEM_IUPAC_NAME>
5-fluoro-3-phenyl-2-[(1S)-1-(7H-purin-6-ylamino)propyl]quinazolin-4-one

>  <PUBCHEM_IUPAC_SYSTEMATIC_NAME>
5-fluoranyl-3-phenyl-2-[(1S)-1-(7H-purin-6-ylamino)propyl]quinazolin-4-one

>  <PUBCHEM_IUPAC_TRADITIONAL_NAME>
5-fluoro-3-phenyl-2-[(1S)-1-(7H-purin-6-ylamino)propyl]quinazolin-4-one

>  <PUBCHEM_IUPAC_INCHI>
InChI=1S/C22H18FN7O/c1-2-15(28-20-18-19(25-11-24-18)26-12-27-20)21-29-16-10-6-9-14(23)17(16)22(31)30(21)13-7-4-3-5-8-13/h3-12,15H,2H2,1H3,(H2,24,25,26,27,28)/t15-/m0/s1

>  <PUBCHEM_IUPAC_INCHIKEY>
IFSDAJWBUCMOAH-HNNXBMFYSA-N

>  <PUBCHEM_XLOGP3_AA>
3.7

>  <PUBCHEM_EXACT_MASS>
415.155686

>  <PUBCHEM_MOLECULAR_FORMULA>
C22H18FN7O

>  <PUBCHEM_MOLECULAR_WEIGHT>
415.423023

>  <PUBCHEM_OPENEYE_CAN_SMILES>
CCC(C1=NC2=C(C(=CC=C2)F)C(=O)N1C3=CC=CC=C3)NC4=NC=NC5=C4NC=N5

>  <PUBCHEM_OPENEYE_ISO_SMILES>
CC[C@@H](C1=NC2=C(C(=CC=C2)F)C(=O)N1C3=CC=CC=C3)NC4=NC=NC5=C4NC=N5

>  <PUBCHEM_CACTVS_TPSA>
99.2

>  <PUBCHEM_MONOISOTOPIC_WEIGHT>
415.155686

>  <PUBCHEM_TOTAL_CHARGE>
0

>  <PUBCHEM_HEAVY_ATOM_COUNT>
31

>  <PUBCHEM_ATOM_DEF_STEREO_COUNT>
1

>  <PUBCHEM_ATOM_UDEF_STEREO_COUNT>
0

>  <PUBCHEM_BOND_DEF_STEREO_COUNT>
0

>  <PUBCHEM_BOND_UDEF_STEREO_COUNT>
0

>  <PUBCHEM_ISOTOPIC_ATOM_COUNT>
0

>  <PUBCHEM_COMPONENT_COUNT>
1

>  <PUBCHEM_CACTVS_TAUTO_COUNT>
112

>  <PUBCHEM_COORDINATE_TYPE>
1
5
255

>  <PUBCHEM_BONDANNOTATIONS>
13  14  8
14  15  8
14  20  8
15  21  8
17  22  8
17  23  8
18  19  8
19  24  8
20  25  8
21  26  8
22  27  8
23  28  8
25  26  8
27  29  8
28  29  8
3  11  8
3  13  8
10  4  6
5  11  8
5  15  8
6  18  8
6  31  8
7  19  8
7  30  8
8  24  8
8  30  8
9  24  8
9  31  8

$$$$
