
 OpenBabel11121517312D

151154  0  0  1  0  0  0  0  0999 V2000
    8.2865   -2.6318    0.0000 O   0  0  0  0  0  0  0  0  0  0  0  0
   10.1658   -1.9477    0.0000 O   0  0  0  0  0  0  0  0  0  0  0  0
    9.0811    3.4502    0.0000 O   0  0  0  0  0  0  0  0  0  0  0  0
   13.5434   -0.0888    0.0000 O   0  0  0  0  0  0  0  0  0  0  0  0
   11.6916    0.5792    0.0000 O   0  0  0  0  0  0  0  0  0  0  0  0
   10.2055    1.9192    0.0000 O   0  0  0  0  0  0  0  0  0  0  0  0
    6.2526    2.2000    0.0000 O   0  0  0  0  0  0  0  0  0  0  0  0
   13.0194    2.3509    0.0000 O   0  0  0  0  0  0  0  0  0  0  0  0
    6.2335   -4.3006    0.0000 O   0  0  0  0  0  0  0  0  0  0  0  0
   10.8113    1.9112    0.0000 O   0  0  0  0  0  0  0  0  0  0  0  0
   11.6377   -0.1040    0.0000 O   0  0  0  0  0  0  0  0  0  0  0  0
    2.3100    2.1183    0.0000 O   0  0  0  0  0  0  0  0  0  0  0  0
    4.9410    1.7939    0.0000 O   0  0  0  0  0  0  0  0  0  0  0  0
    3.1511   -0.0888    0.0000 O   0  0  0  0  0  0  0  0  0  0  0  0
   11.8113    2.9112    0.0000 N   0  0  0  0  0  0  0  0  0  0  0  0
    8.8075    0.3227    0.0000 C   0  0  1  0  0  0  0  0  0  0  0  0
    9.5734   -0.3201    0.0000 C   0  0  0  0  0  0  0  0  0  0  0  0
    7.8678   -0.0194    0.0000 C   0  0  0  0  0  0  0  0  0  0  0  0
    8.9811    1.3075    0.0000 C   0  0  0  0  0  0  0  0  0  0  0  0
    9.3998   -1.3049    0.0000 C   0  0  2  0  0  0  0  0  0  0  0  0
    8.4602   -1.6470    0.0000 C   0  0  1  0  0  0  0  0  0  0  0  0
    7.6941   -1.0042    0.0000 C   0  0  0  0  0  0  0  0  0  0  0  0
    8.2151    1.9502    0.0000 C   0  0  2  0  0  0  0  0  0  0  0  0
    8.2151    2.9502    0.0000 C   0  0  2  0  0  0  0  0  0  0  0  0
    7.3491    1.4502    0.0000 C   0  0  0  0  0  0  0  0  0  0  0  0
    7.3491    3.4502    0.0000 C   0  0  0  0  0  0  0  0  0  0  0  0
   10.9453    3.4112    0.0000 C   0  0  2  0  0  0  0  0  0  0  0  0
   13.5512    0.9292    0.0000 C   0  0  1  0  0  0  0  0  0  0  0  0
   12.6774    0.4112    0.0000 C   0  0  2  0  0  0  0  0  0  0  0  0
    7.3468   -2.9738    0.0000 C   0  0  0  0  0  0  0  0  0  0  0  0
   13.5434   -1.0888    0.0000 C   0  0  3  0  0  0  0  0  0  0  0  0
   14.4329    0.4247    0.0000 C   0  0  0  0  0  0  0  0  0  0  0  0
   10.0793    2.9112    0.0000 C   0  0  0  0  0  0  0  0  0  0  0  0
   10.9453    4.4112    0.0000 C   0  0  0  0  0  0  0  0  0  0  0  0
   14.4289   -0.5911    0.0000 C   0  0  0  0  0  0  0  0  0  0  0  0
    9.9922   -2.9325    0.0000 C   0  0  0  0  0  0  0  0  0  0  0  0
    6.3831    3.1914    0.0000 C   0  0  0  0  0  0  0  0  0  0  0  0
   12.6774    3.4112    0.0000 C   0  0  0  0  0  0  0  0  0  0  0  0
   11.8113    4.9112    0.0000 C   0  0  0  0  0  0  0  0  0  0  0  0
   12.6774    4.4112    0.0000 C   0  0  0  0  0  0  0  0  0  0  0  0
   12.6774   -1.5888    0.0000 C   0  0  0  0  0  0  0  0  0  0  0  0
   12.6774    1.4112    0.0000 C   0  0  0  0  0  0  0  0  0  0  0  0
    5.5171    3.6914    0.0000 C   0  0  2  0  0  0  0  0  0  0  0  0
   11.8113    1.9112    0.0000 C   0  0  0  0  0  0  0  0  0  0  0  0
   14.1880    1.7002    0.0000 C   0  0  0  0  0  0  0  0  0  0  0  0
    7.1732   -3.9586    0.0000 C   0  0  0  0  0  0  0  0  0  0  0  0
   11.8113   -1.0888    0.0000 C   0  0  1  0  0  0  0  0  0  0  0  0
    5.2583    4.6574    0.0000 C   0  0  0  0  0  0  0  0  0  0  0  0
    5.0171    2.8254    0.0000 C   0  0  0  0  0  0  0  0  0  0  0  0
   10.9453   -1.5888    0.0000 C   0  0  0  0  0  0  0  0  0  0  0  0
    4.0171    2.8254    0.0000 C   0  0  0  0  0  0  0  0  0  0  0  0
    3.3100    2.1183    0.0000 C   0  0  2  0  0  0  0  0  0  0  0  0
   10.9453   -2.5888    0.0000 C   0  0  0  0  0  0  0  0  0  0  0  0
   10.0793   -1.0888    0.0000 C   0  0  0  0  0  0  0  0  0  0  0  0
    4.0171    1.4112    0.0000 C   0  0  2  0  0  0  0  0  0  0  0  0
    3.6344    3.7493    0.0000 C   0  0  0  0  0  0  0  0  0  0  0  0
   10.6980    0.2380    0.0000 C   0  0  0  0  0  0  0  0  0  0  0  0
    4.0171    0.4112    0.0000 C   0  0  0  0  0  0  0  0  0  0  0  0
    4.8831   -0.0888    0.0000 C   0  0  1  0  0  0  0  0  0  0  0  0
    9.2133   -1.5888    0.0000 C   0  0  0  0  0  0  0  0  0  0  0  0
    5.7492    0.4112    0.0000 C   0  0  0  0  0  0  0  0  0  0  0  0
    6.6152   -0.0888    0.0000 C   0  0  1  0  0  0  0  0  0  0  0  0
    4.8831   -1.0888    0.0000 C   0  0  0  0  0  0  0  0  0  0  0  0
    8.3472   -1.0888    0.0000 C   0  0  0  0  0  0  0  0  0  0  0  0
    6.6152   -1.0888    0.0000 C   0  0  0  0  0  0  0  0  0  0  0  0
    7.1152    0.7772    0.0000 C   0  0  0  0  0  0  0  0  0  0  0  0
    7.4812   -1.5888    0.0000 C   0  0  0  0  0  0  0  0  0  0  0  0
    5.7343    1.1851    0.0000 C   0  0  0  0  0  0  0  0  0  0  0  0
    9.3901    0.5347    0.0000 H   0  0  0  0  0  0  0  0  0  0  0  0
   10.1560   -0.5322    0.0000 H   0  0  0  0  0  0  0  0  0  0  0  0
    9.8834    0.2168    0.0000 H   0  0  0  0  0  0  0  0  0  0  0  0
    7.7601    0.5912    0.0000 H   0  0  0  0  0  0  0  0  0  0  0  0
    7.2478   -0.0194    0.0000 H   0  0  0  0  0  0  0  0  0  0  0  0
    9.5637    1.0954    0.0000 H   0  0  0  0  0  0  0  0  0  0  0  0
    9.2911    1.8444    0.0000 H   0  0  0  0  0  0  0  0  0  0  0  0
    9.9824   -1.0929    0.0000 H   0  0  0  0  0  0  0  0  0  0  0  0
    8.9351   -2.0455    0.0000 H   0  0  0  0  0  0  0  0  0  0  0  0
    7.1115   -0.7921    0.0000 H   0  0  0  0  0  0  0  0  0  0  0  0
    7.3841   -1.5411    0.0000 H   0  0  0  0  0  0  0  0  0  0  0  0
    7.6782    2.2602    0.0000 H   0  0  0  0  0  0  0  0  0  0  0  0
    8.9512    2.5253    0.0000 H   0  0  0  0  0  0  0  0  0  0  0  0
    7.0391    1.9872    0.0000 H   0  0  0  0  0  0  0  0  0  0  0  0
    6.8121    1.1402    0.0000 H   0  0  0  0  0  0  0  0  0  0  0  0
    7.6591    0.9133    0.0000 H   0  0  0  0  0  0  0  0  0  0  0  0
    7.7875    3.8887    0.0000 H   0  0  0  0  0  0  0  0  0  0  0  0
    7.0391    3.9872    0.0000 H   0  0  0  0  0  0  0  0  0  0  0  0
   10.2092    3.8362    0.0000 H   0  0  0  0  0  0  0  0  0  0  0  0
   13.1481    1.4003    0.0000 H   0  0  0  0  0  0  0  0  0  0  0  0
    7.2392   -2.3632    0.0000 H   0  0  0  0  0  0  0  0  0  0  0  0
    6.7268   -2.9738    0.0000 H   0  0  0  0  0  0  0  0  0  0  0  0
   13.9641   -1.8274    0.0000 H   0  0  0  0  0  0  0  0  0  0  0  0
   15.0433    0.3163    0.0000 H   0  0  0  0  0  0  0  0  0  0  0  0
   14.6442    1.0076    0.0000 H   0  0  0  0  0  0  0  0  0  0  0  0
   14.6357   -1.1756    0.0000 H   0  0  0  0  0  0  0  0  0  0  0  0
   15.0402   -0.4874    0.0000 H   0  0  0  0  0  0  0  0  0  0  0  0
   10.7333    4.9938    0.0000 H   0  0  0  0  0  0  0  0  0  0  0  0
   10.3347    4.3035    0.0000 H   0  0  0  0  0  0  0  0  0  0  0  0
    9.3816   -2.8249    0.0000 H   0  0  0  0  0  0  0  0  0  0  0  0
    9.8845   -3.5431    0.0000 H   0  0  0  0  0  0  0  0  0  0  0  0
   10.6028   -3.0402    0.0000 H   0  0  0  0  0  0  0  0  0  0  0  0
   12.8894    2.8286    0.0000 H   0  0  0  0  0  0  0  0  0  0  0  0
   13.2879    3.5189    0.0000 H   0  0  0  0  0  0  0  0  0  0  0  0
   12.2099    5.3861    0.0000 H   0  0  0  0  0  0  0  0  0  0  0  0
   11.4128    5.3861    0.0000 H   0  0  0  0  0  0  0  0  0  0  0  0
   13.2879    4.3035    0.0000 H   0  0  0  0  0  0  0  0  0  0  0  0
   12.8894    4.9938    0.0000 H   0  0  0  0  0  0  0  0  0  0  0  0
   12.2788   -2.0638    0.0000 H   0  0  0  0  0  0  0  0  0  0  0  0
   13.0759   -2.0638    0.0000 H   0  0  0  0  0  0  0  0  0  0  0  0
    6.0090    4.0689    0.0000 H   0  0  0  0  0  0  0  0  0  0  0  0
   14.6660    1.3054    0.0000 H   0  0  0  0  0  0  0  0  0  0  0  0
   14.5829    2.1782    0.0000 H   0  0  0  0  0  0  0  0  0  0  0  0
   13.7100    2.0951    0.0000 H   0  0  0  0  0  0  0  0  0  0  0  0
    7.2809   -4.5692    0.0000 H   0  0  0  0  0  0  0  0  0  0  0  0
    7.7932   -3.9586    0.0000 H   0  0  0  0  0  0  0  0  0  0  0  0
   12.3192   -0.7332    0.0000 H   0  0  0  0  0  0  0  0  0  0  0  0
   11.2144    0.9749    0.0000 H   0  0  0  0  0  0  0  0  0  0  0  0
    5.8572    4.8178    0.0000 H   0  0  0  0  0  0  0  0  0  0  0  0
    5.0978    5.2562    0.0000 H   0  0  0  0  0  0  0  0  0  0  0  0
    4.6594    4.4969    0.0000 H   0  0  0  0  0  0  0  0  0  0  0  0
    5.3271    2.2885    0.0000 H   0  0  0  0  0  0  0  0  0  0  0  0
    6.1258   -4.9112    0.0000 H   0  0  0  0  0  0  0  0  0  0  0  0
    3.0727    1.5455    0.0000 H   0  0  0  0  0  0  0  0  0  0  0  0
   10.3253   -2.5888    0.0000 H   0  0  0  0  0  0  0  0  0  0  0  0
   10.9453   -3.2088    0.0000 H   0  0  0  0  0  0  0  0  0  0  0  0
   11.5653   -2.5888    0.0000 H   0  0  0  0  0  0  0  0  0  0  0  0
   10.1869   -0.4782    0.0000 H   0  0  0  0  0  0  0  0  0  0  0  0
    4.5326    1.0667    0.0000 H   0  0  0  0  0  0  0  0  0  0  0  0
    4.2072    3.9866    0.0000 H   0  0  0  0  0  0  0  0  0  0  0  0
    3.3972    4.3221    0.0000 H   0  0  0  0  0  0  0  0  0  0  0  0
    3.0616    3.5120    0.0000 H   0  0  0  0  0  0  0  0  0  0  0  0
   10.9100    0.8206    0.0000 H   0  0  0  0  0  0  0  0  0  0  0  0
   10.1154    0.4501    0.0000 H   0  0  0  0  0  0  0  0  0  0  0  0
   10.4859   -0.3446    0.0000 H   0  0  0  0  0  0  0  0  0  0  0  0
    4.3462   -0.3988    0.0000 H   0  0  0  0  0  0  0  0  0  0  0  0
    9.2133   -2.2088    0.0000 H   0  0  0  0  0  0  0  0  0  0  0  0
    6.1477    0.8861    0.0000 H   0  0  0  0  0  0  0  0  0  0  0  0
    5.3506    0.8861    0.0000 H   0  0  0  0  0  0  0  0  0  0  0  0
    2.0000    2.6552    0.0000 H   0  0  0  0  0  0  0  0  0  0  0  0
    7.2141   -0.2493    0.0000 H   0  0  0  0  0  0  0  0  0  0  0  0
    4.2631   -1.0888    0.0000 H   0  0  0  0  0  0  0  0  0  0  0  0
    4.8831   -1.7088    0.0000 H   0  0  0  0  0  0  0  0  0  0  0  0
    5.5031   -1.0888    0.0000 H   0  0  0  0  0  0  0  0  0  0  0  0
    8.3472   -0.4688    0.0000 H   0  0  0  0  0  0  0  0  0  0  0  0
    6.0782   -1.3988    0.0000 H   0  0  0  0  0  0  0  0  0  0  0  0
    7.6521    0.4672    0.0000 H   0  0  0  0  0  0  0  0  0  0  0  0
    7.4252    1.3142    0.0000 H   0  0  0  0  0  0  0  0  0  0  0  0
    6.5782    1.0872    0.0000 H   0  0  0  0  0  0  0  0  0  0  0  0
    7.4812   -2.2088    0.0000 H   0  0  0  0  0  0  0  0  0  0  0  0
    5.3569    0.6932    0.0000 H   0  0  0  0  0  0  0  0  0  0  0  0
    6.2262    0.8077    0.0000 H   0  0  0  0  0  0  0  0  0  0  0  0
    6.1118    1.6770    0.0000 H   0  0  0  0  0  0  0  0  0  0  0  0
  1 30  1  0  0  0  0
  2 36  1  0  0  0  0
  3 24  1  0  0  0  0
  3 33  1  0  0  0  0
  4 29  1  0  0  0  0
  4 31  1  0  0  0  0
  5116  1  0  0  0  0
  6 33  2  0  0  0  0
  7 37  2  0  0  0  0
  8 42  2  0  0  0  0
  9 46  1  0  0  0  0
  9121  1  0  0  0  0
 10 44  2  0  0  0  0
 11 57  1  0  0  0  0
 12138  1  0  0  0  0
 13 68  1  0  0  0  0
 14 58  2  0  0  0  0
 15 27  1  0  0  0  0
 15 38  1  0  0  0  0
 15 44  1  0  0  0  0
 16 17  1  0  0  0  0
 16 18  1  0  0  0  0
 16 19  1  0  0  0  0
 16 69  1  6  0  0  0
 17 20  1  0  0  0  0
 17 70  1  0  0  0  0
 17 71  1  0  0  0  0
 18 22  1  0  0  0  0
 18 72  1  0  0  0  0
 18 73  1  0  0  0  0
 19 23  1  0  0  0  0
 19 74  1  0  0  0  0
 19 75  1  0  0  0  0
 20  2  1  0  0  0  0
 20 21  1  0  0  0  0
 20 76  1  6  0  0  0
 21  1  1  0  0  0  0
 21 22  1  0  0  0  0
 21 77  1  1  0  0  0
 22 78  1  0  0  0  0
 22 79  1  0  0  0  0
 23 24  1  0  0  0  0
 23 25  1  0  0  0  0
 23 80  1  6  0  0  0
 24 26  1  0  0  0  0
 24 81  1  1  0  0  0
 25 82  1  0  0  0  0
 25 83  1  0  0  0  0
 25 84  1  0  0  0  0
 26 37  1  0  0  0  0
 26 85  1  0  0  0  0
 26 86  1  0  0  0  0
 27 33  1  0  0  0  0
 27 34  1  0  0  0  0
 27 87  1  1  0  0  0
 28 29  1  0  0  0  0
 28 32  1  0  0  0  0
 28 45  1  0  0  0  0
 28 88  1  1  0  0  0
 29  5  1  6  0  0  0
 29 42  1  0  0  0  0
 30 46  1  0  0  0  0
 30 89  1  0  0  0  0
 30 90  1  0  0  0  0
 31 35  1  0  0  0  0
 31 41  1  0  0  0  0
 31 91  1  0  0  0  0
 32 35  1  0  0  0  0
 32 92  1  0  0  0  0
 32 93  1  0  0  0  0
 34 39  1  0  0  0  0
 34 96  1  0  0  0  0
 34 97  1  0  0  0  0
 35 94  1  0  0  0  0
 35 95  1  0  0  0  0
 36 98  1  0  0  0  0
 36 99  1  0  0  0  0
 36100  1  0  0  0  0
 37 43  1  0  0  0  0
 38 40  1  0  0  0  0
 38101  1  0  0  0  0
 38102  1  0  0  0  0
 39 40  1  0  0  0  0
 39103  1  0  0  0  0
 39104  1  0  0  0  0
 40105  1  0  0  0  0
 40106  1  0  0  0  0
 41 47  1  0  0  0  0
 41107  1  0  0  0  0
 41108  1  0  0  0  0
 42 44  1  0  0  0  0
 43 48  1  0  0  0  0
 43 49  1  0  0  0  0
 43109  1  6  0  0  0
 45110  1  0  0  0  0
 45111  1  0  0  0  0
 45112  1  0  0  0  0
 46113  1  0  0  0  0
 46114  1  0  0  0  0
 47 11  1  0  0  0  0
 47 50  1  0  0  0  0
 47115  1  6  0  0  0
 48117  1  0  0  0  0
 48118  1  0  0  0  0
 48119  1  0  0  0  0
 49 51  2  0  0  0  0
 49120  1  0  0  0  0
 50 53  1  0  0  0  0
 50 54  2  0  0  0  0
 51 52  1  0  0  0  0
 51 56  1  0  0  0  0
 52 12  1  0  0  0  0
 52 55  1  0  0  0  0
 52122  1  1  0  0  0
 53123  1  0  0  0  0
 53124  1  0  0  0  0
 53125  1  0  0  0  0
 54 60  1  0  0  0  0
 54126  1  0  0  0  0
 55 13  1  0  0  0  0
 55 58  1  0  0  0  0
 55127  1  6  0  0  0
 56128  1  0  0  0  0
 56129  1  0  0  0  0
 56130  1  0  0  0  0
 57131  1  0  0  0  0
 57132  1  0  0  0  0
 57133  1  0  0  0  0
 58 59  1  0  0  0  0
 59 61  1  0  0  0  0
 59 63  1  0  0  0  0
 59134  1  6  0  0  0
 60 64  2  0  0  0  0
 60135  1  0  0  0  0
 61 62  1  0  0  0  0
 61136  1  0  0  0  0
 61137  1  0  0  0  0
 62 65  1  0  0  0  0
 62 66  1  0  0  0  0
 62139  1  1  0  0  0
 63140  1  0  0  0  0
 63141  1  0  0  0  0
 63142  1  0  0  0  0
 64 67  1  0  0  0  0
 64143  1  0  0  0  0
 65 67  2  0  0  0  0
 65144  1  0  0  0  0
 66145  1  0  0  0  0
 66146  1  0  0  0  0
 66147  1  0  0  0  0
 67148  1  0  0  0  0
 68149  1  0  0  0  0
 68150  1  0  0  0  0
 68151  1  0  0  0  0
M  END
>  <PUBCHEM_COMPOUND_CID>
23724849

>  <PUBCHEM_COMPOUND_CANONICALIZED>
1

>  <PUBCHEM_CACTVS_COMPLEXITY>
1810

>  <PUBCHEM_CACTVS_HBOND_ACCEPTOR>
14

>  <PUBCHEM_CACTVS_HBOND_DONOR>
3

>  <PUBCHEM_CACTVS_ROTATABLE_BOND>
9

>  <PUBCHEM_CACTVS_SUBSKEYS>
AAADcfB+PAAAAAAAAAAAAAAAAAAAAAAAAAA8SIAAAAAAAAAAAAAAHgAACAAADTzhgAYCCAMABgCIAqHSGAIAAAAgAAAICAHIAAgbFBYAoSQHUAAH5gCfsAOY6PSOAAAAAAAAAABAAAIAAACAAAAAAAAAAA==

>  <PUBCHEM_IUPAC_INCHI>
InChI=1S/C53H83NO14/c1-32-16-12-11-13-17-33(2)44(63-8)30-40-21-19-38(7)53(62,68-40)50(59)51(60)54-23-15-14-18-41(54)52(61)67-45(35(4)28-39-20-22-43(66-25-24-55)46(29-39)64-9)31-42(56)34(3)27-37(6)48(58)49(65-10)47(57)36(5)26-32/h11-13,16-17,27,32,34-36,38-41,43-46,48-49,55,58,62H,14-15,18-26,28-31H2,1-10H3/b13-11+,16-12+,33-17+,37-27+/t32-,34-,35-,36-,38-,39+,40?,41+,43-,44+,45+,46-,48-,49+,53-/m1/s1

>  <PUBCHEM_IUPAC_INCHIKEY>
HKVAMNSJSFKALM-LNNUTQBZSA-N

>  <PUBCHEM_XLOGP3_AA>
5.9

>  <PUBCHEM_EXACT_MASS>
957.581356

>  <PUBCHEM_MOLECULAR_FORMULA>
C53H83NO14

>  <PUBCHEM_MOLECULAR_WEIGHT>
958.22442

>  <PUBCHEM_OPENEYE_CAN_SMILES>
CC1CCC2CC(C(=CC=CC=CC(CC(C(=O)C(C(C(=CC(C(=O)CC(OC(=O)C3CCCCN3C(=O)C(=O)C1(O2)O)C(C)CC4CCC(C(C4)OC)OCCO)C)C)O)OC)C)C)C)OC

>  <PUBCHEM_OPENEYE_ISO_SMILES>
C[C@@H]1CCC2C[C@@H](/C(=C/C=C/C=C/[C@H](C[C@H](C(=O)[C@@H]([C@@H](/C(=C/[C@H](C(=O)C[C@H](OC(=O)[C@@H]3CCCCN3C(=O)C(=O)[C@@]1(O2)O)[C@H](C)C[C@@H]4CC[C@H]([C@@H](C4)OC)OCCO)C)/C)O)OC)C)C)/C)OC

>  <PUBCHEM_CACTVS_TPSA>
205

>  <PUBCHEM_MONOISOTOPIC_WEIGHT>
957.581356

>  <PUBCHEM_TOTAL_CHARGE>
0

>  <PUBCHEM_HEAVY_ATOM_COUNT>
68

>  <PUBCHEM_ATOM_DEF_STEREO_COUNT>
14

>  <PUBCHEM_ATOM_UDEF_STEREO_COUNT>
1

>  <PUBCHEM_BOND_DEF_STEREO_COUNT>
4

>  <PUBCHEM_BOND_UDEF_STEREO_COUNT>
0

>  <PUBCHEM_ISOTOPIC_ATOM_COUNT>
0

>  <PUBCHEM_COMPONENT_COUNT>
1

>  <PUBCHEM_CACTVS_TAUTO_COUNT>
15

>  <PUBCHEM_COORDINATE_TYPE>
1
5
255

>  <PUBCHEM_BONDANNOTATIONS>
21  1  6
47  11  5
52  12  6
55  13  5
16  19  5
20  2  5
23  25  5
24  81  5
27  87  5
28  45  6
31  91  3
43  48  5
29  5  6
59  63  5
62  66  6

$$$$
