
 OpenBabel11121517312D

111116  0  0  1  0  0  0  0  0999 V2000
   21.9186   -3.0000    0.0000 Cl  0  0  0  0  0  0  0  0  0  0  0  0
   10.6603    1.5000    0.0000 S   0  0  0  0  0  0  0  0  0  0  0  0
    8.9282    4.5000    0.0000 S   0  0  0  0  0  0  0  0  0  0  0  0
    4.5981    3.0000    0.0000 S   0  0  0  0  0  0  0  0  0  0  0  0
    8.9282    6.5000    0.0000 F   0  0  0  0  0  0  0  0  0  0  0  0
    9.9282    5.5000    0.0000 F   0  0  0  0  0  0  0  0  0  0  0  0
    7.9282    5.5000    0.0000 F   0  0  0  0  0  0  0  0  0  0  0  0
   18.4545   -3.0000    0.0000 O   0  0  0  0  0  0  0  0  0  0  0  0
   10.6603   -0.5000    0.0000 O   0  0  0  0  0  0  0  0  0  0  0  0
   10.1603    0.6340    0.0000 O   0  0  0  0  0  0  0  0  0  0  0  0
   11.1603    2.3660    0.0000 O   0  0  0  0  0  0  0  0  0  0  0  0
    9.9282    4.5000    0.0000 O   0  0  0  0  0  0  0  0  0  0  0  0
    7.9282    4.5000    0.0000 O   0  0  0  0  0  0  0  0  0  0  0  0
    3.7320   -1.5000    0.0000 O   0  0  0  0  0  0  0  0  0  0  0  0
   14.9904   -2.0000    0.0000 N   0  0  0  0  0  0  0  0  0  0  0  0
    7.1962    3.5000    0.0000 N   0  0  0  0  0  0  0  0  0  0  0  0
   11.5263    1.0000    0.0000 N   0  0  0  0  0  0  0  0  0  0  0  0
    5.4641    0.5000    0.0000 N   0  0  0  0  0  0  0  0  0  0  0  0
   16.7224   -3.0000    0.0000 C   0  0  3  0  0  0  0  0  0  0  0  0
   15.8564   -3.5000    0.0000 C   0  0  0  0  0  0  0  0  0  0  0  0
   16.7224   -2.0000    0.0000 C   0  0  0  0  0  0  0  0  0  0  0  0
   14.9904   -3.0000    0.0000 C   0  0  0  0  0  0  0  0  0  0  0  0
   15.8564   -1.5000    0.0000 C   0  0  0  0  0  0  0  0  0  0  0  0
   17.5885   -3.5000    0.0000 C   0  0  2  0  0  0  0  0  0  0  0  0
   17.5885   -4.5000    0.0000 C   0  0  0  0  0  0  0  0  0  0  0  0
   14.1244   -1.5000    0.0000 C   0  0  0  0  0  0  0  0  0  0  0  0
   18.4545   -5.0000    0.0000 C   0  0  0  0  0  0  0  0  0  0  0  0
   16.7224   -5.0000    0.0000 C   0  0  0  0  0  0  0  0  0  0  0  0
   14.1244   -0.5000    0.0000 C   0  0  0  0  0  0  0  0  0  0  0  0
   13.2583   -2.0000    0.0000 C   0  0  0  0  0  0  0  0  0  0  0  0
   18.4545   -6.0000    0.0000 C   0  0  0  0  0  0  0  0  0  0  0  0
   19.3205   -4.5000    0.0000 C   0  0  0  0  0  0  0  0  0  0  0  0
   16.7224   -6.0000    0.0000 C   0  0  0  0  0  0  0  0  0  0  0  0
   13.2583    0.0000    0.0000 C   0  0  0  0  0  0  0  0  0  0  0  0
   12.3923   -1.5000    0.0000 C   0  0  0  0  0  0  0  0  0  0  0  0
   17.5885   -6.5000    0.0000 C   0  0  0  0  0  0  0  0  0  0  0  0
   12.3923   -0.5000    0.0000 C   0  0  0  0  0  0  0  0  0  0  0  0
   20.1865   -5.0000    0.0000 C   0  0  0  0  0  0  0  0  0  0  0  0
   19.3205   -3.5000    0.0000 C   0  0  0  0  0  0  0  0  0  0  0  0
   11.5263    0.0000    0.0000 C   0  0  0  0  0  0  0  0  0  0  0  0
    6.3301    3.0000    0.0000 C   0  0  2  0  0  0  0  0  0  0  0  0
    6.3301    2.0000    0.0000 C   0  0  0  0  0  0  0  0  0  0  0  0
   21.0526   -4.5000    0.0000 C   0  0  0  0  0  0  0  0  0  0  0  0
   20.1865   -3.0000    0.0000 C   0  0  0  0  0  0  0  0  0  0  0  0
    5.4641    1.5000    0.0000 C   0  0  0  0  0  0  0  0  0  0  0  0
    5.4641    3.5000    0.0000 C   0  0  0  0  0  0  0  0  0  0  0  0
    8.0622    3.0000    0.0000 C   0  0  0  0  0  0  0  0  0  0  0  0
   21.0526   -3.5000    0.0000 C   0  0  0  0  0  0  0  0  0  0  0  0
    8.9282    3.5000    0.0000 C   0  0  0  0  0  0  0  0  0  0  0  0
    9.7942    2.0000    0.0000 C   0  0  0  0  0  0  0  0  0  0  0  0
    9.7942    3.0000    0.0000 C   0  0  0  0  0  0  0  0  0  0  0  0
    8.0622    2.0000    0.0000 C   0  0  0  0  0  0  0  0  0  0  0  0
    4.5981    0.0000    0.0000 C   0  0  0  0  0  0  0  0  0  0  0  0
    8.9282    1.5000    0.0000 C   0  0  0  0  0  0  0  0  0  0  0  0
    6.3301    0.0000    0.0000 C   0  0  0  0  0  0  0  0  0  0  0  0
    4.5981   -1.0000    0.0000 C   0  0  0  0  0  0  0  0  0  0  0  0
    8.9282    5.5000    0.0000 C   0  0  0  0  0  0  0  0  0  0  0  0
    3.7320    3.5000    0.0000 C   0  0  0  0  0  0  0  0  0  0  0  0
    2.8660    3.0000    0.0000 C   0  0  0  0  0  0  0  0  0  0  0  0
    3.7320    4.5000    0.0000 C   0  0  0  0  0  0  0  0  0  0  0  0
    2.0000    3.5000    0.0000 C   0  0  0  0  0  0  0  0  0  0  0  0
    2.8660    5.0000    0.0000 C   0  0  0  0  0  0  0  0  0  0  0  0
    2.0000    4.5000    0.0000 C   0  0  0  0  0  0  0  0  0  0  0  0
   16.7224   -3.6200    0.0000 H   0  0  0  0  0  0  0  0  0  0  0  0
   15.4579   -3.9750    0.0000 H   0  0  0  0  0  0  0  0  0  0  0  0
   16.2549   -3.9750    0.0000 H   0  0  0  0  0  0  0  0  0  0  0  0
   17.3330   -2.1077    0.0000 H   0  0  0  0  0  0  0  0  0  0  0  0
   16.9345   -1.4174    0.0000 H   0  0  0  0  0  0  0  0  0  0  0  0
   14.3798   -2.8923    0.0000 H   0  0  0  0  0  0  0  0  0  0  0  0
   14.7783   -3.5826    0.0000 H   0  0  0  0  0  0  0  0  0  0  0  0
   16.2549   -1.0250    0.0000 H   0  0  0  0  0  0  0  0  0  0  0  0
   15.4579   -1.0250    0.0000 H   0  0  0  0  0  0  0  0  0  0  0  0
   17.5885   -2.8800    0.0000 H   0  0  0  0  0  0  0  0  0  0  0  0
   18.4545   -2.3800    0.0000 H   0  0  0  0  0  0  0  0  0  0  0  0
   16.1855   -4.6900    0.0000 H   0  0  0  0  0  0  0  0  0  0  0  0
   14.6613   -0.1900    0.0000 H   0  0  0  0  0  0  0  0  0  0  0  0
   13.2583   -2.6200    0.0000 H   0  0  0  0  0  0  0  0  0  0  0  0
   18.9914   -6.3100    0.0000 H   0  0  0  0  0  0  0  0  0  0  0  0
   16.1855   -6.3100    0.0000 H   0  0  0  0  0  0  0  0  0  0  0  0
   13.2583    0.6200    0.0000 H   0  0  0  0  0  0  0  0  0  0  0  0
   11.8554   -1.8100    0.0000 H   0  0  0  0  0  0  0  0  0  0  0  0
   17.5885   -7.1200    0.0000 H   0  0  0  0  0  0  0  0  0  0  0  0
   20.1865   -5.6200    0.0000 H   0  0  0  0  0  0  0  0  0  0  0  0
   18.7836   -3.1900    0.0000 H   0  0  0  0  0  0  0  0  0  0  0  0
    6.8671    2.6900    0.0000 H   0  0  0  0  0  0  0  0  0  0  0  0
    6.5422    1.4174    0.0000 H   0  0  0  0  0  0  0  0  0  0  0  0
    6.9407    2.1077    0.0000 H   0  0  0  0  0  0  0  0  0  0  0  0
    5.2520    2.0826    0.0000 H   0  0  0  0  0  0  0  0  0  0  0  0
    4.8535    1.3923    0.0000 H   0  0  0  0  0  0  0  0  0  0  0  0
   21.5895   -4.8100    0.0000 H   0  0  0  0  0  0  0  0  0  0  0  0
   20.1865   -2.3800    0.0000 H   0  0  0  0  0  0  0  0  0  0  0  0
    7.1962    4.1200    0.0000 H   0  0  0  0  0  0  0  0  0  0  0  0
   12.0632    1.3100    0.0000 H   0  0  0  0  0  0  0  0  0  0  0  0
    5.8626    3.9750    0.0000 H   0  0  0  0  0  0  0  0  0  0  0  0
    5.0656    3.9750    0.0000 H   0  0  0  0  0  0  0  0  0  0  0  0
   10.3312    3.3100    0.0000 H   0  0  0  0  0  0  0  0  0  0  0  0
    7.5252    1.6900    0.0000 H   0  0  0  0  0  0  0  0  0  0  0  0
    4.3860    0.5826    0.0000 H   0  0  0  0  0  0  0  0  0  0  0  0
    3.9875   -0.1077    0.0000 H   0  0  0  0  0  0  0  0  0  0  0  0
    8.9282    0.8800    0.0000 H   0  0  0  0  0  0  0  0  0  0  0  0
    6.0201   -0.5369    0.0000 H   0  0  0  0  0  0  0  0  0  0  0  0
    6.8671   -0.3100    0.0000 H   0  0  0  0  0  0  0  0  0  0  0  0
    6.6401    0.5369    0.0000 H   0  0  0  0  0  0  0  0  0  0  0  0
    4.8101   -1.5826    0.0000 H   0  0  0  0  0  0  0  0  0  0  0  0
    5.2087   -0.8923    0.0000 H   0  0  0  0  0  0  0  0  0  0  0  0
    2.8660    2.3800    0.0000 H   0  0  0  0  0  0  0  0  0  0  0  0
    4.2690    4.8100    0.0000 H   0  0  0  0  0  0  0  0  0  0  0  0
    3.7320   -2.1200    0.0000 H   0  0  0  0  0  0  0  0  0  0  0  0
    1.4631    3.1900    0.0000 H   0  0  0  0  0  0  0  0  0  0  0  0
    2.8660    5.6200    0.0000 H   0  0  0  0  0  0  0  0  0  0  0  0
    1.4631    4.8100    0.0000 H   0  0  0  0  0  0  0  0  0  0  0  0
  1 48  1  0  0  0  0
  2 10  2  0  0  0  0
  2 11  2  0  0  0  0
  2 17  1  0  0  0  0
  2 50  1  0  0  0  0
  3 12  2  0  0  0  0
  3 13  2  0  0  0  0
  3 49  1  0  0  0  0
  3 57  1  0  0  0  0
  4 46  1  0  0  0  0
  4 58  1  0  0  0  0
  5 57  1  0  0  0  0
  6 57  1  0  0  0  0
  7 57  1  0  0  0  0
  8 74  1  0  0  0  0
  9 40  2  0  0  0  0
 14 56  1  0  0  0  0
 14108  1  0  0  0  0
 15 22  1  0  0  0  0
 15 23  1  0  0  0  0
 15 26  1  0  0  0  0
 16 47  1  0  0  0  0
 16 92  1  0  0  0  0
 17 40  1  0  0  0  0
 17 93  1  0  0  0  0
 18 45  1  0  0  0  0
 18 53  1  0  0  0  0
 18 55  1  0  0  0  0
 19 20  1  0  0  0  0
 19 21  1  0  0  0  0
 19 24  1  0  0  0  0
 19 64  1  0  0  0  0
 20 22  1  0  0  0  0
 20 65  1  0  0  0  0
 20 66  1  0  0  0  0
 21 23  1  0  0  0  0
 21 67  1  0  0  0  0
 21 68  1  0  0  0  0
 22 69  1  0  0  0  0
 22 70  1  0  0  0  0
 23 71  1  0  0  0  0
 23 72  1  0  0  0  0
 24  8  1  0  0  0  0
 24 25  1  0  0  0  0
 24 73  1  6  0  0  0
 25 27  1  0  0  0  0
 25 28  2  0  0  0  0
 26 29  2  0  0  0  0
 26 30  1  0  0  0  0
 27 31  2  0  0  0  0
 27 32  1  0  0  0  0
 28 33  1  0  0  0  0
 28 75  1  0  0  0  0
 29 34  1  0  0  0  0
 29 76  1  0  0  0  0
 30 35  2  0  0  0  0
 30 77  1  0  0  0  0
 31 36  1  0  0  0  0
 31 78  1  0  0  0  0
 32 38  2  0  0  0  0
 32 39  1  0  0  0  0
 33 36  2  0  0  0  0
 33 79  1  0  0  0  0
 34 37  2  0  0  0  0
 34 80  1  0  0  0  0
 35 37  1  0  0  0  0
 35 81  1  0  0  0  0
 36 82  1  0  0  0  0
 37 40  1  0  0  0  0
 38 43  1  0  0  0  0
 38 83  1  0  0  0  0
 39 44  2  0  0  0  0
 39 84  1  0  0  0  0
 41 16  1  0  0  0  0
 41 42  1  0  0  0  0
 41 46  1  0  0  0  0
 41 85  1  1  0  0  0
 42 45  1  0  0  0  0
 42 86  1  0  0  0  0
 42 87  1  0  0  0  0
 43 48  2  0  0  0  0
 43 90  1  0  0  0  0
 44 48  1  0  0  0  0
 44 91  1  0  0  0  0
 45 88  1  0  0  0  0
 45 89  1  0  0  0  0
 46 94  1  0  0  0  0
 46 95  1  0  0  0  0
 47 49  2  0  0  0  0
 47 52  1  0  0  0  0
 49 51  1  0  0  0  0
 50 51  2  0  0  0  0
 50 54  1  0  0  0  0
 51 96  1  0  0  0  0
 52 54  2  0  0  0  0
 52 97  1  0  0  0  0
 53 56  1  0  0  0  0
 53 98  1  0  0  0  0
 53 99  1  0  0  0  0
 54100  1  0  0  0  0
 55101  1  0  0  0  0
 55102  1  0  0  0  0
 55103  1  0  0  0  0
 56104  1  0  0  0  0
 56105  1  0  0  0  0
 58 59  2  0  0  0  0
 58 60  1  0  0  0  0
 59 61  1  0  0  0  0
 59106  1  0  0  0  0
 60 62  2  0  0  0  0
 60107  1  0  0  0  0
 61 63  2  0  0  0  0
 61109  1  0  0  0  0
 62 63  1  0  0  0  0
 62110  1  0  0  0  0
 63111  1  0  0  0  0
M  END
>  <PUBCHEM_COMPOUND_CID>
86661883

>  <PUBCHEM_COMPOUND_CANONICALIZED>
1

>  <PUBCHEM_CACTVS_COMPLEXITY>
1630

>  <PUBCHEM_CACTVS_HBOND_ACCEPTOR>
14

>  <PUBCHEM_CACTVS_HBOND_DONOR>
4

>  <PUBCHEM_CACTVS_ROTATABLE_BOND>
18

>  <PUBCHEM_CACTVS_SUBSKEYS>
AAADcfB/uYBkAAAAAAAAAAAAAAAAAAAAAAA8YMGDAAAAAAABVAAAHwYQSAAADT7l2DaywYPAAgqIAiVSUHDCABAlDxAIiJ0IbsgKNjLh15GEcQhk0AH42Ye4yeCejAQAAEAQAQAYCAAAgCACAAAAAAAAAA==

>  <PUBCHEM_IUPAC_OPENEYE_NAME>
4-[4-[(R)-[2-(4-chlorophenyl)phenyl]-hydroxy-methyl]-1-piperidyl]-N-[4-[[(1R)-3-[2-hydroxyethyl(methyl)amino]-1-(phenylsulfanylmethyl)propyl]amino]-3-(trifluoromethylsulfonyl)phenyl]sulfonyl-benzamide

>  <PUBCHEM_IUPAC_CAS_NAME>
4-[4-[(R)-[2-(4-chlorophenyl)phenyl]-hydroxymethyl]-1-piperidinyl]-N-[4-[[(2R)-4-[2-hydroxyethyl(methyl)amino]-1-(phenylthio)butan-2-yl]amino]-3-(trifluoromethylsulfonyl)phenyl]sulfonylbenzamide

>  <PUBCHEM_IUPAC_NAME>
4-[4-[(R)-[2-(4-chlorophenyl)phenyl]-hydroxymethyl]piperidin-1-yl]-N-[4-[[(2R)-4-[2-hydroxyethyl(methyl)amino]-1-phenylsulfanylbutan-2-yl]amino]-3-(trifluoromethylsulfonyl)phenyl]sulfonylbenzamide

>  <PUBCHEM_IUPAC_SYSTEMATIC_NAME>
4-[4-[(R)-[2-(4-chlorophenyl)phenyl]-oxidanyl-methyl]piperidin-1-yl]-N-[4-[[(2R)-4-[2-hydroxyethyl(methyl)amino]-1-phenylsulfanyl-butan-2-yl]amino]-3-(trifluoromethylsulfonyl)phenyl]sulfonyl-benzamide

>  <PUBCHEM_IUPAC_TRADITIONAL_NAME>
4-[4-[(R)-[2-(4-chlorophenyl)phenyl]-hydroxy-methyl]piperidino]-N-[4-[[(1R)-3-[2-hydroxyethyl(methyl)amino]-1-[(phenylthio)methyl]propyl]amino]-3-triflyl-phenyl]sulfonyl-benzamide

>  <PUBCHEM_IUPAC_INCHI>
InChI=1S/C45H48ClF3N4O7S3/c1-52(27-28-54)24-23-35(30-61-37-7-3-2-4-8-37)50-41-20-19-38(29-42(41)62(57,58)45(47,48)49)63(59,60)51-44(56)33-13-17-36(18-14-33)53-25-21-32(22-26-53)43(55)40-10-6-5-9-39(40)31-11-15-34(46)16-12-31/h2-20,29,32,35,43,50,54-55H,21-28,30H2,1H3,(H,51,56)/t35-,43-/m1/s1

>  <PUBCHEM_IUPAC_INCHIKEY>
UNEJSHNDABUZNY-UJNHCCGESA-N

>  <PUBCHEM_XLOGP3_AA>
9.3

>  <PUBCHEM_EXACT_MASS>
944.232575

>  <PUBCHEM_MOLECULAR_FORMULA>
C45H48ClF3N4O7S3

>  <PUBCHEM_MOLECULAR_WEIGHT>
945.52843

>  <PUBCHEM_OPENEYE_CAN_SMILES>
CN(CCC(CSC1=CC=CC=C1)NC2=C(C=C(C=C2)S(=O)(=O)NC(=O)C3=CC=C(C=C3)N4CCC(CC4)C(C5=CC=CC=C5C6=CC=C(C=C6)Cl)O)S(=O)(=O)C(F)(F)F)CCO

>  <PUBCHEM_OPENEYE_ISO_SMILES>
CN(CC[C@H](CSC1=CC=CC=C1)NC2=C(C=C(C=C2)S(=O)(=O)NC(=O)C3=CC=C(C=C3)N4CCC(CC4)[C@H](C5=CC=CC=C5C6=CC=C(C=C6)Cl)O)S(=O)(=O)C(F)(F)F)CCO

>  <PUBCHEM_CACTVS_TPSA>
198

>  <PUBCHEM_MONOISOTOPIC_WEIGHT>
944.232575

>  <PUBCHEM_TOTAL_CHARGE>
0

>  <PUBCHEM_HEAVY_ATOM_COUNT>
63

>  <PUBCHEM_ATOM_DEF_STEREO_COUNT>
2

>  <PUBCHEM_ATOM_UDEF_STEREO_COUNT>
0

>  <PUBCHEM_BOND_DEF_STEREO_COUNT>
0

>  <PUBCHEM_BOND_UDEF_STEREO_COUNT>
0

>  <PUBCHEM_ISOTOPIC_ATOM_COUNT>
0

>  <PUBCHEM_COMPONENT_COUNT>
1

>  <PUBCHEM_CACTVS_TAUTO_COUNT>
2

>  <PUBCHEM_COORDINATE_TYPE>
1
5
255

>  <PUBCHEM_BONDANNOTATIONS>
41  16  6
25  27  8
25  28  8
26  29  8
26  30  8
27  31  8
28  33  8
29  34  8
30  35  8
31  36  8
32  38  8
32  39  8
33  36  8
34  37  8
35  37  8
38  43  8
39  44  8
43  48  8
44  48  8
47  49  8
47  52  8
49  51  8
50  51  8
50  54  8
52  54  8
58  59  8
58  60  8
59  61  8
60  62  8
61  63  8
62  63  8
24  8  5

$$$$
