
 OpenBabel11121517312D

 70 75  0  0  0  0  0  0  0  0999 V2000
    8.9560   -1.7470    0.0000 Cl  0  0  0  0  0  0  0  0  0  0  0  0
    5.4641   -2.6923    0.0000 O   0  0  0  0  0  0  0  0  0  0  0  0
    2.8660   -4.1923    0.0000 O   0  0  0  0  0  0  0  0  0  0  0  0
    3.7320    0.3077    0.0000 O   0  0  0  0  0  0  0  0  0  0  0  0
    7.3164   -4.8953    0.0000 O   0  0  0  0  0  0  0  0  0  0  0  0
    8.7009   -5.7161    0.0000 O   0  0  0  0  0  0  0  0  0  0  0  0
    2.8660    2.8077    0.0000 N   0  0  0  0  0  0  0  0  0  0  0  0
    2.8660    4.8077    0.0000 N   0  0  0  0  0  0  0  0  0  0  0  0
    7.2125   -2.7269    0.0000 N   0  0  0  0  0  0  0  0  0  0  0  0
    7.2241    0.3424    0.0000 N   0  0  0  0  0  0  0  0  0  0  0  0
    8.1301   -1.2131    0.0000 N   0  0  0  0  0  0  0  0  0  0  0  0
    2.0000    3.3077    0.0000 C   0  0  0  0  0  0  0  0  0  0  0  0
    3.7320    3.3077    0.0000 C   0  0  0  0  0  0  0  0  0  0  0  0
    2.0000    4.3077    0.0000 C   0  0  0  0  0  0  0  0  0  0  0  0
    3.7320    4.3077    0.0000 C   0  0  0  0  0  0  0  0  0  0  0  0
    2.8660    1.8077    0.0000 C   0  0  0  0  0  0  0  0  0  0  0  0
    4.5981   -3.1923    0.0000 C   0  0  0  0  0  0  0  0  0  0  0  0
    3.7320   -2.6923    0.0000 C   0  0  0  0  0  0  0  0  0  0  0  0
    4.5981   -4.1923    0.0000 C   0  0  0  0  0  0  0  0  0  0  0  0
    3.7320    1.3077    0.0000 C   0  0  0  0  0  0  0  0  0  0  0  0
    2.8660    5.8077    0.0000 C   0  0  0  0  0  0  0  0  0  0  0  0
    3.7320   -4.6923    0.0000 C   0  0  0  0  0  0  0  0  0  0  0  0
    2.8660   -3.1923    0.0000 C   0  0  0  0  0  0  0  0  0  0  0  0
    5.4641   -1.6923    0.0000 C   0  0  0  0  0  0  0  0  0  0  0  0
    4.5981   -0.1923    0.0000 C   0  0  0  0  0  0  0  0  0  0  0  0
    6.3301   -1.1923    0.0000 C   0  0  0  0  0  0  0  0  0  0  0  0
    4.5981   -1.1923    0.0000 C   0  0  0  0  0  0  0  0  0  0  0  0
    6.3301   -0.1923    0.0000 C   0  0  0  0  0  0  0  0  0  0  0  0
    5.4641    0.3077    0.0000 C   0  0  0  0  0  0  0  0  0  0  0  0
    7.2241   -1.7269    0.0000 C   0  0  0  0  0  0  0  0  0  0  0  0
    8.0727   -3.2369    0.0000 C   0  0  0  0  0  0  0  0  0  0  0  0
    8.1301   -0.1715    0.0000 C   0  0  0  0  0  0  0  0  0  0  0  0
    8.0611   -4.2368    0.0000 C   0  0  0  0  0  0  0  0  0  0  0  0
    8.9213   -4.7468    0.0000 C   0  0  0  0  0  0  0  0  0  0  0  0
    8.9444   -2.7469    0.0000 C   0  0  0  0  0  0  0  0  0  0  0  0
    9.7931   -4.2568    0.0000 C   0  0  0  0  0  0  0  0  0  0  0  0
    9.8046   -3.2569    0.0000 C   0  0  0  0  0  0  0  0  0  0  0  0
    7.7110   -5.8077    0.0000 C   0  0  0  0  0  0  0  0  0  0  0  0
    3.9441    2.7251    0.0000 H   0  0  0  0  0  0  0  0  0  0  0  0
    4.3426    3.4154    0.0000 H   0  0  0  0  0  0  0  0  0  0  0  0
    1.3894    3.4154    0.0000 H   0  0  0  0  0  0  0  0  0  0  0  0
    1.7880    2.7251    0.0000 H   0  0  0  0  0  0  0  0  0  0  0  0
    4.3426    4.2001    0.0000 H   0  0  0  0  0  0  0  0  0  0  0  0
    3.9441    4.8903    0.0000 H   0  0  0  0  0  0  0  0  0  0  0  0
    1.7880    4.8903    0.0000 H   0  0  0  0  0  0  0  0  0  0  0  0
    1.3894    4.2001    0.0000 H   0  0  0  0  0  0  0  0  0  0  0  0
    2.2554    1.9154    0.0000 H   0  0  0  0  0  0  0  0  0  0  0  0
    2.6540    1.2251    0.0000 H   0  0  0  0  0  0  0  0  0  0  0  0
    4.5981   -2.5723    0.0000 H   0  0  0  0  0  0  0  0  0  0  0  0
    4.8101   -4.7749    0.0000 H   0  0  0  0  0  0  0  0  0  0  0  0
    5.2087   -4.0846    0.0000 H   0  0  0  0  0  0  0  0  0  0  0  0
    4.1306   -2.2173    0.0000 H   0  0  0  0  0  0  0  0  0  0  0  0
    3.3335   -2.2173    0.0000 H   0  0  0  0  0  0  0  0  0  0  0  0
    4.3426    1.2001    0.0000 H   0  0  0  0  0  0  0  0  0  0  0  0
    3.9441    1.8903    0.0000 H   0  0  0  0  0  0  0  0  0  0  0  0
    3.4860    5.8077    0.0000 H   0  0  0  0  0  0  0  0  0  0  0  0
    2.8660    6.4277    0.0000 H   0  0  0  0  0  0  0  0  0  0  0  0
    2.2460    5.8077    0.0000 H   0  0  0  0  0  0  0  0  0  0  0  0
    3.3335   -5.1672    0.0000 H   0  0  0  0  0  0  0  0  0  0  0  0
    4.1306   -5.1672    0.0000 H   0  0  0  0  0  0  0  0  0  0  0  0
    2.6540   -2.6097    0.0000 H   0  0  0  0  0  0  0  0  0  0  0  0
    2.2554   -3.2999    0.0000 H   0  0  0  0  0  0  0  0  0  0  0  0
    4.0611   -1.5023    0.0000 H   0  0  0  0  0  0  0  0  0  0  0  0
    5.4641    0.9277    0.0000 H   0  0  0  0  0  0  0  0  0  0  0  0
    6.6720   -3.0306    0.0000 H   0  0  0  0  0  0  0  0  0  0  0  0
    8.6659    0.1406    0.0000 H   0  0  0  0  0  0  0  0  0  0  0  0
   10.3264   -4.5730    0.0000 H   0  0  0  0  0  0  0  0  0  0  0  0
   10.3451   -2.9531    0.0000 H   0  0  0  0  0  0  0  0  0  0  0  0
    7.1193   -5.9926    0.0000 H   0  0  0  0  0  0  0  0  0  0  0  0
    7.8328   -6.4156    0.0000 H   0  0  0  0  0  0  0  0  0  0  0  0
  1 35  1  0  0  0  0
  2 17  1  0  0  0  0
  2 24  1  0  0  0  0
  3 22  1  0  0  0  0
  3 23  1  0  0  0  0
  4 20  1  0  0  0  0
  4 25  1  0  0  0  0
  5 33  1  0  0  0  0
  5 38  1  0  0  0  0
  6 34  1  0  0  0  0
  6 38  1  0  0  0  0
  7 12  1  0  0  0  0
  7 13  1  0  0  0  0
  7 16  1  0  0  0  0
  8 14  1  0  0  0  0
  8 15  1  0  0  0  0
  8 21  1  0  0  0  0
  9 30  1  0  0  0  0
  9 31  1  0  0  0  0
  9 65  1  0  0  0  0
 10 28  1  0  0  0  0
 10 32  2  0  0  0  0
 11 30  2  0  0  0  0
 11 32  1  0  0  0  0
 12 14  1  0  0  0  0
 12 41  1  0  0  0  0
 12 42  1  0  0  0  0
 13 15  1  0  0  0  0
 13 39  1  0  0  0  0
 13 40  1  0  0  0  0
 14 45  1  0  0  0  0
 14 46  1  0  0  0  0
 15 43  1  0  0  0  0
 15 44  1  0  0  0  0
 16 20  1  0  0  0  0
 16 47  1  0  0  0  0
 16 48  1  0  0  0  0
 17 18  1  0  0  0  0
 17 19  1  0  0  0  0
 17 49  1  0  0  0  0
 18 23  1  0  0  0  0
 18 52  1  0  0  0  0
 18 53  1  0  0  0  0
 19 22  1  0  0  0  0
 19 50  1  0  0  0  0
 19 51  1  0  0  0  0
 20 54  1  0  0  0  0
 20 55  1  0  0  0  0
 21 56  1  0  0  0  0
 21 57  1  0  0  0  0
 21 58  1  0  0  0  0
 22 59  1  0  0  0  0
 22 60  1  0  0  0  0
 23 61  1  0  0  0  0
 23 62  1  0  0  0  0
 24 26  1  0  0  0  0
 24 27  2  0  0  0  0
 25 27  1  0  0  0  0
 25 29  2  0  0  0  0
 26 28  2  0  0  0  0
 26 30  1  0  0  0  0
 27 63  1  0  0  0  0
 28 29  1  0  0  0  0
 29 64  1  0  0  0  0
 31 33  1  0  0  0  0
 31 35  2  0  0  0  0
 32 66  1  0  0  0  0
 33 34  2  0  0  0  0
 34 36  1  0  0  0  0
 35 37  1  0  0  0  0
 36 37  2  0  0  0  0
 36 67  1  0  0  0  0
 37 68  1  0  0  0  0
 38 69  1  0  0  0  0
 38 70  1  0  0  0  0
M  END
>  <PUBCHEM_COMPOUND_CID>
10302451

>  <PUBCHEM_COMPOUND_CANONICALIZED>
1

>  <PUBCHEM_CACTVS_COMPLEXITY>
743

>  <PUBCHEM_CACTVS_HBOND_ACCEPTOR>
10

>  <PUBCHEM_CACTVS_HBOND_DONOR>
1

>  <PUBCHEM_CACTVS_ROTATABLE_BOND>
8

>  <PUBCHEM_CACTVS_SUBSKEYS>
AAADcfB7uAAEAAAAAAAAAAAAAAAAASAAAAA8eJECAAAAAEix9AAAHgIQAAAADB7hnic3/vfIFACgAyZjZACCiCkxJ6AJ2CA/7pifb2LF+9v3PCrvwB/e6CeQ8C8OICAACwAKUBBAQAAWABSgIAAAAAAAAA==

>  <PUBCHEM_IUPAC_OPENEYE_NAME>
N-(5-chloro-1,3-benzodioxol-4-yl)-7-[2-(4-methylpiperazin-1-yl)ethoxy]-5-tetrahydropyran-4-yloxy-quinazolin-4-amine

>  <PUBCHEM_IUPAC_CAS_NAME>
N-(5-chloro-1,3-benzodioxol-4-yl)-7-[2-(4-methyl-1-piperazinyl)ethoxy]-5-(4-oxanyloxy)-4-quinazolinamine

>  <PUBCHEM_IUPAC_NAME>
N-(5-chloro-1,3-benzodioxol-4-yl)-7-[2-(4-methylpiperazin-1-yl)ethoxy]-5-(oxan-4-yloxy)quinazolin-4-amine

>  <PUBCHEM_IUPAC_SYSTEMATIC_NAME>
N-(5-chloranyl-1,3-benzodioxol-4-yl)-7-[2-(4-methylpiperazin-1-yl)ethoxy]-5-(oxan-4-yloxy)quinazolin-4-amine

>  <PUBCHEM_IUPAC_TRADITIONAL_NAME>
(5-chloro-1,3-benzodioxol-4-yl)-[7-[2-(4-methylpiperazino)ethoxy]-5-tetrahydropyran-4-yloxy-quinazolin-4-yl]amine

>  <PUBCHEM_IUPAC_INCHI>
InChI=1S/C27H32ClN5O5/c1-32-6-8-33(9-7-32)10-13-35-19-14-21-24(23(15-19)38-18-4-11-34-12-5-18)27(30-16-29-21)31-25-20(28)2-3-22-26(25)37-17-36-22/h2-3,14-16,18H,4-13,17H2,1H3,(H,29,30,31)

>  <PUBCHEM_IUPAC_INCHIKEY>
OUKYUETWWIPKQR-UHFFFAOYSA-N

>  <PUBCHEM_XLOGP3_AA>
4.1

>  <PUBCHEM_EXACT_MASS>
541.209197

>  <PUBCHEM_MOLECULAR_FORMULA>
C27H32ClN5O5

>  <PUBCHEM_MOLECULAR_WEIGHT>
542.02648

>  <PUBCHEM_OPENEYE_CAN_SMILES>
CN1CCN(CC1)CCOC2=CC(=C3C(=C2)N=CN=C3NC4=C(C=CC5=C4OCO5)Cl)OC6CCOCC6

>  <PUBCHEM_OPENEYE_ISO_SMILES>
CN1CCN(CC1)CCOC2=CC(=C3C(=C2)N=CN=C3NC4=C(C=CC5=C4OCO5)Cl)OC6CCOCC6

>  <PUBCHEM_CACTVS_TPSA>
90.4

>  <PUBCHEM_MONOISOTOPIC_WEIGHT>
541.209197

>  <PUBCHEM_TOTAL_CHARGE>
0

>  <PUBCHEM_HEAVY_ATOM_COUNT>
38

>  <PUBCHEM_ATOM_DEF_STEREO_COUNT>
0

>  <PUBCHEM_ATOM_UDEF_STEREO_COUNT>
0

>  <PUBCHEM_BOND_DEF_STEREO_COUNT>
0

>  <PUBCHEM_BOND_UDEF_STEREO_COUNT>
0

>  <PUBCHEM_ISOTOPIC_ATOM_COUNT>
0

>  <PUBCHEM_COMPONENT_COUNT>
1

>  <PUBCHEM_CACTVS_TAUTO_COUNT>
3

>  <PUBCHEM_COORDINATE_TYPE>
1
5
255

>  <PUBCHEM_BONDANNOTATIONS>
10  28  8
10  32  8
11  30  8
11  32  8
24  26  8
24  27  8
25  27  8
25  29  8
26  28  8
26  30  8
28  29  8
31  33  8
31  35  8
33  34  8
34  36  8
35  37  8
36  37  8

$$$$
