
 OpenBabel11121517312D

 62 65  0  0  1  0  0  0  0  0999 V2000
    2.8660   -0.1830    0.0000 O   0  0  0  0  0  0  0  0  0  0  0  0
    7.1962    4.3170    0.0000 N   0  0  0  0  0  0  0  0  0  0  0  0
    8.0622    2.8170    0.0000 N   0  0  0  0  0  0  0  0  0  0  0  0
    9.0084    3.1217    0.0000 N   0  0  0  0  0  0  0  0  0  0  0  0
    7.1962    1.3170    0.0000 N   0  0  0  0  0  0  0  0  0  0  0  0
    5.4641    1.3170    0.0000 N   0  0  0  0  0  0  0  0  0  0  0  0
    5.4641   -2.6830    0.0000 N   0  0  0  0  0  0  0  0  0  0  0  0
    7.1962   -4.6830    0.0000 N   0  0  0  0  0  0  0  0  0  0  0  0
    3.7320   -1.6830    0.0000 N   0  0  0  0  0  0  0  0  0  0  0  0
    9.6297   -0.3888    0.0000 N   0  0  0  0  0  0  0  0  0  0  0  0
    6.3301    4.8170    0.0000 C   0  0  0  0  0  0  0  0  0  0  0  0
    5.8301    5.6830    0.0000 C   0  0  0  0  0  0  0  0  0  0  0  0
    5.3301    4.8170    0.0000 C   0  0  0  0  0  0  0  0  0  0  0  0
    7.1962    3.3170    0.0000 C   0  0  0  0  0  0  0  0  0  0  0  0
    6.3301    2.8170    0.0000 C   0  0  0  0  0  0  0  0  0  0  0  0
    8.0622    1.8170    0.0000 C   0  0  0  0  0  0  0  0  0  0  0  0
    6.3301    1.8170    0.0000 C   0  0  0  0  0  0  0  0  0  0  0  0
    9.0084    1.5123    0.0000 C   0  0  0  0  0  0  0  0  0  0  0  0
    9.5920    2.3170    0.0000 C   0  0  0  0  0  0  0  0  0  0  0  0
    5.4641    0.3170    0.0000 C   0  0  0  0  0  0  0  0  0  0  0  0
    5.4641   -1.6830    0.0000 C   0  0  0  0  0  0  0  0  0  0  0  0
    6.3301   -3.1830    0.0000 C   0  0  0  0  0  0  0  0  0  0  0  0
    4.5981   -1.1830    0.0000 C   0  0  0  0  0  0  0  0  0  0  0  0
    6.3301   -4.1830    0.0000 C   0  0  0  0  0  0  0  0  0  0  0  0
    4.5981   -0.1830    0.0000 C   0  0  0  0  0  0  0  0  0  0  0  0
    6.3301   -0.1830    0.0000 C   0  0  0  0  0  0  0  0  0  0  0  0
    6.3301   -1.1830    0.0000 C   0  0  0  0  0  0  0  0  0  0  0  0
    4.5981   -3.1830    0.0000 C   0  0  0  0  0  0  0  0  0  0  0  0
    9.3191    0.5617    0.0000 C   0  0  0  0  0  0  0  0  0  0  0  0
    7.1962   -5.6830    0.0000 C   0  0  0  0  0  0  0  0  0  0  0  0
    8.0622   -4.1830    0.0000 C   0  0  0  0  0  0  0  0  0  0  0  0
    2.8660   -1.1830    0.0000 C   0  0  0  0  0  0  0  0  0  0  0  0
    2.0000   -1.6830    0.0000 C   0  0  0  0  0  0  0  0  0  0  0  0
    6.7685    5.2554    0.0000 H   0  0  0  0  0  0  0  0  0  0  0  0
    6.3051    6.0815    0.0000 H   0  0  0  0  0  0  0  0  0  0  0  0
    5.3552    6.0815    0.0000 H   0  0  0  0  0  0  0  0  0  0  0  0
    4.7475    5.0290    0.0000 H   0  0  0  0  0  0  0  0  0  0  0  0
    5.2225    4.2064    0.0000 H   0  0  0  0  0  0  0  0  0  0  0  0
    7.7331    4.6270    0.0000 H   0  0  0  0  0  0  0  0  0  0  0  0
    5.7932    3.1270    0.0000 H   0  0  0  0  0  0  0  0  0  0  0  0
    4.9272    1.6270    0.0000 H   0  0  0  0  0  0  0  0  0  0  0  0
   10.2120    2.3170    0.0000 H   0  0  0  0  0  0  0  0  0  0  0  0
    6.9407   -3.2907    0.0000 H   0  0  0  0  0  0  0  0  0  0  0  0
    6.5422   -2.6004    0.0000 H   0  0  0  0  0  0  0  0  0  0  0  0
    5.7196   -4.0754    0.0000 H   0  0  0  0  0  0  0  0  0  0  0  0
    6.1181   -4.7656    0.0000 H   0  0  0  0  0  0  0  0  0  0  0  0
    4.0611    0.1270    0.0000 H   0  0  0  0  0  0  0  0  0  0  0  0
    6.8671    0.1270    0.0000 H   0  0  0  0  0  0  0  0  0  0  0  0
    6.8671   -1.4930    0.0000 H   0  0  0  0  0  0  0  0  0  0  0  0
    4.2881   -2.6461    0.0000 H   0  0  0  0  0  0  0  0  0  0  0  0
    4.0611   -3.4930    0.0000 H   0  0  0  0  0  0  0  0  0  0  0  0
    4.9081   -3.7200    0.0000 H   0  0  0  0  0  0  0  0  0  0  0  0
    3.7320   -2.3030    0.0000 H   0  0  0  0  0  0  0  0  0  0  0  0
    6.5762   -5.6830    0.0000 H   0  0  0  0  0  0  0  0  0  0  0  0
    7.1962   -6.3030    0.0000 H   0  0  0  0  0  0  0  0  0  0  0  0
    7.8162   -5.6830    0.0000 H   0  0  0  0  0  0  0  0  0  0  0  0
    8.3722   -4.7200    0.0000 H   0  0  0  0  0  0  0  0  0  0  0  0
    8.5991   -3.8730    0.0000 H   0  0  0  0  0  0  0  0  0  0  0  0
    7.7522   -3.6461    0.0000 H   0  0  0  0  0  0  0  0  0  0  0  0
    1.6900   -1.1461    0.0000 H   0  0  0  0  0  0  0  0  0  0  0  0
    1.4631   -1.9930    0.0000 H   0  0  0  0  0  0  0  0  0  0  0  0
    2.3100   -2.2200    0.0000 H   0  0  0  0  0  0  0  0  0  0  0  0
  1 32  2  0  0  0  0
  2 11  1  0  0  0  0
  2 14  1  0  0  0  0
  2 39  1  0  0  0  0
  3  4  1  0  0  0  0
  3 14  1  0  0  0  0
  3 16  1  0  0  0  0
  4 19  2  0  0  0  0
  5 16  1  0  0  0  0
  5 17  2  0  0  0  0
  6 17  1  0  0  0  0
  6 20  1  0  0  0  0
  6 41  1  0  0  0  0
  7 21  1  0  0  0  0
  7 22  1  0  0  0  0
  7 28  1  0  0  0  0
  8 24  1  0  0  0  0
  8 30  1  0  0  0  0
  8 31  1  0  0  0  0
  9 23  1  0  0  0  0
  9 32  1  0  0  0  0
  9 53  1  0  0  0  0
 10 29  3  0  0  0  0
 11 12  1  0  0  0  0
 11 13  1  0  0  0  0
 11 34  1  0  0  0  0
 12 13  1  0  0  0  0
 12 35  1  0  0  0  0
 12 36  1  0  0  0  0
 13 37  1  0  0  0  0
 13 38  1  0  0  0  0
 14 15  2  0  0  0  0
 15 17  1  0  0  0  0
 15 40  1  0  0  0  0
 16 18  2  0  0  0  0
 18 19  1  0  0  0  0
 18 29  1  0  0  0  0
 19 42  1  0  0  0  0
 20 25  2  0  0  0  0
 20 26  1  0  0  0  0
 21 23  2  0  0  0  0
 21 27  1  0  0  0  0
 22 24  1  0  0  0  0
 22 43  1  0  0  0  0
 22 44  1  0  0  0  0
 23 25  1  0  0  0  0
 24 45  1  0  0  0  0
 24 46  1  0  0  0  0
 25 47  1  0  0  0  0
 26 27  2  0  0  0  0
 26 48  1  0  0  0  0
 27 49  1  0  0  0  0
 28 50  1  0  0  0  0
 28 51  1  0  0  0  0
 28 52  1  0  0  0  0
 30 54  1  0  0  0  0
 30 55  1  0  0  0  0
 30 56  1  0  0  0  0
 31 57  1  0  0  0  0
 31 58  1  0  0  0  0
 31 59  1  0  0  0  0
 32 33  1  0  0  0  0
 33 60  1  0  0  0  0
 33 61  1  0  0  0  0
 33 62  1  0  0  0  0
M  END
>  <PUBCHEM_COMPOUND_CID>
76321032

>  <PUBCHEM_COMPOUND_CANONICALIZED>
1

>  <PUBCHEM_CACTVS_COMPLEXITY>
720

>  <PUBCHEM_CACTVS_HBOND_ACCEPTOR>
8

>  <PUBCHEM_CACTVS_HBOND_DONOR>
3

>  <PUBCHEM_CACTVS_ROTATABLE_BOND>
9

>  <PUBCHEM_CACTVS_SUBSKEYS>
AAADceB74AAAAAAAAAAAAAAAGAAAAWAAAAA8QAAAAAAAAFgB8AAAHgAYAAAADCjBmwQ/8J/IEAC6Bjd3dACyhCshgqAdmKA4dJiI6OLA2dGUpAh4nALIyCcQAAAAAACAAAQAACAAAQAACAAAQAAAAAAAAA==

>  <PUBCHEM_IUPAC_OPENEYE_NAME>
N-[5-[[3-cyano-7-(cyclopropylamino)pyrazolo[1,5-a]pyrimidin-5-yl]amino]-2-[2-(dimethylamino)ethyl-methyl-amino]phenyl]acetamide

>  <PUBCHEM_IUPAC_CAS_NAME>
N-[5-[[3-cyano-7-(cyclopropylamino)-5-pyrazolo[1,5-a]pyrimidinyl]amino]-2-[2-(dimethylamino)ethyl-methylamino]phenyl]acetamide

>  <PUBCHEM_IUPAC_NAME>
N-[5-[[3-cyano-7-(cyclopropylamino)pyrazolo[1,5-a]pyrimidin-5-yl]amino]-2-[2-(dimethylamino)ethyl-methylamino]phenyl]acetamide

>  <PUBCHEM_IUPAC_SYSTEMATIC_NAME>
N-[5-[[3-cyano-7-(cyclopropylamino)pyrazolo[1,5-a]pyrimidin-5-yl]amino]-2-[2-(dimethylamino)ethyl-methyl-amino]phenyl]ethanamide

>  <PUBCHEM_IUPAC_TRADITIONAL_NAME>
N-[5-[[3-cyano-7-(cyclopropylamino)pyrazolo[1,5-a]pyrimidin-5-yl]amino]-2-[2-(dimethylamino)ethyl-methyl-amino]phenyl]acetamide

>  <PUBCHEM_IUPAC_INCHI>
InChI=1S/C23H29N9O/c1-15(33)26-19-11-18(7-8-20(19)31(4)10-9-30(2)3)27-21-12-22(28-17-5-6-17)32-23(29-21)16(13-24)14-25-32/h7-8,11-12,14,17,28H,5-6,9-10H2,1-4H3,(H,26,33)(H,27,29)

>  <PUBCHEM_IUPAC_INCHIKEY>
SRABOMKMQRYXIK-UHFFFAOYSA-N

>  <PUBCHEM_XLOGP3_AA>
2.1

>  <PUBCHEM_EXACT_MASS>
447.249507

>  <PUBCHEM_MOLECULAR_FORMULA>
C23H29N9O

>  <PUBCHEM_MOLECULAR_WEIGHT>
447.53606

>  <PUBCHEM_OPENEYE_CAN_SMILES>
CC(=O)NC1=C(C=CC(=C1)NC2=NC3=C(C=NN3C(=C2)NC4CC4)C#N)N(C)CCN(C)C

>  <PUBCHEM_OPENEYE_ISO_SMILES>
CC(=O)NC1=C(C=CC(=C1)NC2=NC3=C(C=NN3C(=C2)NC4CC4)C#N)N(C)CCN(C)C

>  <PUBCHEM_CACTVS_TPSA>
114

>  <PUBCHEM_MONOISOTOPIC_WEIGHT>
447.249507

>  <PUBCHEM_TOTAL_CHARGE>
0

>  <PUBCHEM_HEAVY_ATOM_COUNT>
33

>  <PUBCHEM_ATOM_DEF_STEREO_COUNT>
0

>  <PUBCHEM_ATOM_UDEF_STEREO_COUNT>
0

>  <PUBCHEM_BOND_DEF_STEREO_COUNT>
0

>  <PUBCHEM_BOND_UDEF_STEREO_COUNT>
0

>  <PUBCHEM_ISOTOPIC_ATOM_COUNT>
0

>  <PUBCHEM_COMPONENT_COUNT>
1

>  <PUBCHEM_CACTVS_TAUTO_COUNT>
33

>  <PUBCHEM_COORDINATE_TYPE>
1
5
255

>  <PUBCHEM_BONDANNOTATIONS>
14  15  8
15  17  8
16  18  8
18  19  8
20  25  8
20  26  8
21  23  8
21  27  8
23  25  8
26  27  8
3  14  8
3  16  8
3  4  8
4  19  8
5  16  8
5  17  8

$$$$
