
 OpenBabel11121517312D

 58 61  0  0  1  0  0  0  0  0999 V2000
    6.3301   -3.7673    0.0000 F   0  0  0  0  0  0  0  0  0  0  0  0
    2.8660   -3.7673    0.0000 F   0  0  0  0  0  0  0  0  0  0  0  0
    7.2241    0.6980    0.0000 O   0  0  0  0  0  0  0  0  0  0  0  0
   10.7224   -0.2981    0.0000 O   0  0  0  0  0  0  0  0  0  0  0  0
    7.2125    3.7673    0.0000 O   0  0  0  0  0  0  0  0  0  0  0  0
    3.7320    3.7327    0.0000 O   0  0  0  0  0  0  0  0  0  0  0  0
    8.9942    0.7086    0.0000 N   0  0  0  0  0  0  0  0  0  0  0  0
    4.5981   -0.7673    0.0000 N   0  0  0  0  0  0  0  0  0  0  0  0
    2.8660    2.2327    0.0000 N   0  0  0  0  0  0  0  0  0  0  0  0
    5.4641    0.7327    0.0000 C   0  0  0  0  0  0  0  0  0  0  0  0
    8.9904   -0.2914    0.0000 C   0  0  0  0  0  0  0  0  0  0  0  0
    9.8622    1.2052    0.0000 C   0  0  0  0  0  0  0  0  0  0  0  0
    5.4641   -0.2673    0.0000 C   0  0  3  0  0  0  0  0  0  0  0  0
    6.3301    1.2327    0.0000 C   0  0  0  0  0  0  0  0  0  0  0  0
    8.1301    1.2119    0.0000 C   0  0  0  0  0  0  0  0  0  0  0  0
    6.3301    2.2327    0.0000 C   0  0  0  0  0  0  0  0  0  0  0  0
   10.7263    0.7019    0.0000 C   0  0  0  0  0  0  0  0  0  0  0  0
    9.8545   -0.7948    0.0000 C   0  0  0  0  0  0  0  0  0  0  0  0
    4.5981    1.2327    0.0000 C   0  0  0  0  0  0  0  0  0  0  0  0
    8.1301    2.2535    0.0000 C   0  0  0  0  0  0  0  0  0  0  0  0
    4.5981    2.2327    0.0000 C   0  0  0  0  0  0  0  0  0  0  0  0
    7.2241    2.7674    0.0000 C   0  0  0  0  0  0  0  0  0  0  0  0
    5.4641    2.7327    0.0000 C   0  0  0  0  0  0  0  0  0  0  0  0
    6.3301   -0.7673    0.0000 C   0  0  0  0  0  0  0  0  0  0  0  0
    3.7320    2.7327    0.0000 C   0  0  0  0  0  0  0  0  0  0  0  0
    4.5981   -1.7673    0.0000 C   0  0  0  0  0  0  0  0  0  0  0  0
    3.7320   -2.2673    0.0000 C   0  0  0  0  0  0  0  0  0  0  0  0
    5.4641   -2.2673    0.0000 C   0  0  0  0  0  0  0  0  0  0  0  0
    2.0000    2.7327    0.0000 C   0  0  0  0  0  0  0  0  0  0  0  0
    2.8660    1.2327    0.0000 C   0  0  0  0  0  0  0  0  0  0  0  0
    5.4641   -3.2673    0.0000 C   0  0  0  0  0  0  0  0  0  0  0  0
    3.7320   -3.2673    0.0000 C   0  0  0  0  0  0  0  0  0  0  0  0
    4.5981   -3.7673    0.0000 C   0  0  0  0  0  0  0  0  0  0  0  0
    8.3802   -0.1814    0.0000 H   0  0  0  0  0  0  0  0  0  0  0  0
    8.7761   -0.8732    0.0000 H   0  0  0  0  0  0  0  0  0  0  0  0
   10.2625    1.6786    0.0000 H   0  0  0  0  0  0  0  0  0  0  0  0
    9.4655    1.6817    0.0000 H   0  0  0  0  0  0  0  0  0  0  0  0
    5.4641   -0.8873    0.0000 H   0  0  0  0  0  0  0  0  0  0  0  0
    9.4541   -1.2682    0.0000 H   0  0  0  0  0  0  0  0  0  0  0  0
   10.2512   -1.2712    0.0000 H   0  0  0  0  0  0  0  0  0  0  0  0
   11.3364    0.5919    0.0000 H   0  0  0  0  0  0  0  0  0  0  0  0
   10.9406    1.2837    0.0000 H   0  0  0  0  0  0  0  0  0  0  0  0
    4.0611    0.9227    0.0000 H   0  0  0  0  0  0  0  0  0  0  0  0
    8.6659    2.5656    0.0000 H   0  0  0  0  0  0  0  0  0  0  0  0
    5.4641    3.3527    0.0000 H   0  0  0  0  0  0  0  0  0  0  0  0
    6.0201   -1.3042    0.0000 H   0  0  0  0  0  0  0  0  0  0  0  0
    6.8671   -1.0773    0.0000 H   0  0  0  0  0  0  0  0  0  0  0  0
    6.6401   -0.2304    0.0000 H   0  0  0  0  0  0  0  0  0  0  0  0
    4.0611   -0.4573    0.0000 H   0  0  0  0  0  0  0  0  0  0  0  0
    3.1951   -1.9573    0.0000 H   0  0  0  0  0  0  0  0  0  0  0  0
    6.0010   -1.9573    0.0000 H   0  0  0  0  0  0  0  0  0  0  0  0
    2.3100    3.2696    0.0000 H   0  0  0  0  0  0  0  0  0  0  0  0
    1.4631    3.0427    0.0000 H   0  0  0  0  0  0  0  0  0  0  0  0
    1.6900    2.1958    0.0000 H   0  0  0  0  0  0  0  0  0  0  0  0
    2.2460    1.2327    0.0000 H   0  0  0  0  0  0  0  0  0  0  0  0
    2.8660    0.6127    0.0000 H   0  0  0  0  0  0  0  0  0  0  0  0
    3.4860    1.2327    0.0000 H   0  0  0  0  0  0  0  0  0  0  0  0
    4.5981   -4.3873    0.0000 H   0  0  0  0  0  0  0  0  0  0  0  0
  1 31  1  0  0  0  0
  2 32  1  0  0  0  0
  3 14  1  0  0  0  0
  3 15  1  0  0  0  0
  4 17  1  0  0  0  0
  4 18  1  0  0  0  0
  5 22  2  0  0  0  0
  6 25  2  0  0  0  0
  7 11  1  0  0  0  0
  7 12  1  0  0  0  0
  7 15  1  0  0  0  0
  8 13  1  0  0  0  0
  8 26  1  0  0  0  0
  8 49  1  0  0  0  0
  9 25  1  0  0  0  0
  9 29  1  0  0  0  0
  9 30  1  0  0  0  0
 10 13  1  0  0  0  0
 10 14  1  0  0  0  0
 10 19  2  0  0  0  0
 11 18  1  0  0  0  0
 11 34  1  0  0  0  0
 11 35  1  0  0  0  0
 12 17  1  0  0  0  0
 12 36  1  0  0  0  0
 12 37  1  0  0  0  0
 13 24  1  0  0  0  0
 13 38  1  0  0  0  0
 14 16  2  0  0  0  0
 15 20  2  0  0  0  0
 16 22  1  0  0  0  0
 16 23  1  0  0  0  0
 17 41  1  0  0  0  0
 17 42  1  0  0  0  0
 18 39  1  0  0  0  0
 18 40  1  0  0  0  0
 19 21  1  0  0  0  0
 19 43  1  0  0  0  0
 20 22  1  0  0  0  0
 20 44  1  0  0  0  0
 21 23  2  0  0  0  0
 21 25  1  0  0  0  0
 23 45  1  0  0  0  0
 24 46  1  0  0  0  0
 24 47  1  0  0  0  0
 24 48  1  0  0  0  0
 26 27  2  0  0  0  0
 26 28  1  0  0  0  0
 27 32  1  0  0  0  0
 27 50  1  0  0  0  0
 28 31  2  0  0  0  0
 28 51  1  0  0  0  0
 29 52  1  0  0  0  0
 29 53  1  0  0  0  0
 29 54  1  0  0  0  0
 30 55  1  0  0  0  0
 30 56  1  0  0  0  0
 30 57  1  0  0  0  0
 31 33  1  0  0  0  0
 32 33  2  0  0  0  0
 33 58  1  0  0  0  0
M  END
>  <PUBCHEM_COMPOUND_CID>
52913929

>  <PUBCHEM_COMPOUND_CANONICALIZED>
1

>  <PUBCHEM_CACTVS_COMPLEXITY>
748

>  <PUBCHEM_CACTVS_HBOND_ACCEPTOR>
8

>  <PUBCHEM_CACTVS_HBOND_DONOR>
1

>  <PUBCHEM_CACTVS_ROTATABLE_BOND>
5

>  <PUBCHEM_CACTVS_SUBSKEYS>
AAADceB7OYAAAAAAAAAAAAAAAAAAAAAAAAA8YIEAAAAAAACBQAAAHwAQAAAADCzhmA4yxoPABACIAqVSUACCCAAlIgAAiIEMbMgOJjbEtZuPMWhm8hHY6ceY3+L+IAACAAAIAABAAAQAABAAAAAAAAAAAA==

>  <PUBCHEM_IUPAC_OPENEYE_NAME>
8-[1-(3,5-difluoroanilino)ethyl]-N,N-dimethyl-2-morpholino-4-oxo-chromene-6-carboxamide

>  <PUBCHEM_IUPAC_CAS_NAME>
8-[1-(3,5-difluoroanilino)ethyl]-N,N-dimethyl-2-(4-morpholinyl)-4-oxo-1-benzopyran-6-carboxamide

>  <PUBCHEM_IUPAC_NAME>
8-[1-(3,5-difluoroanilino)ethyl]-N,N-dimethyl-2-morpholin-4-yl-4-oxochromene-6-carboxamide

>  <PUBCHEM_IUPAC_SYSTEMATIC_NAME>
8-[1-[[3,5-bis(fluoranyl)phenyl]amino]ethyl]-N,N-dimethyl-2-morpholin-4-yl-4-oxidanylidene-chromene-6-carboxamide

>  <PUBCHEM_IUPAC_TRADITIONAL_NAME>
8-[1-(3,5-difluoroanilino)ethyl]-4-keto-N,N-dimethyl-2-morpholino-chromene-6-carboxamide

>  <PUBCHEM_IUPAC_INCHI>
InChI=1S/C24H25F2N3O4/c1-14(27-18-11-16(25)10-17(26)12-18)19-8-15(24(31)28(2)3)9-20-21(30)13-22(33-23(19)20)29-4-6-32-7-5-29/h8-14,27H,4-7H2,1-3H3

>  <PUBCHEM_IUPAC_INCHIKEY>
LMJFJIDLEAWOQJ-UHFFFAOYSA-N

>  <PUBCHEM_XLOGP3_AA>
3

>  <PUBCHEM_EXACT_MASS>
457.181313

>  <PUBCHEM_MOLECULAR_FORMULA>
C24H25F2N3O4

>  <PUBCHEM_MOLECULAR_WEIGHT>
457.469806

>  <PUBCHEM_OPENEYE_CAN_SMILES>
CC(C1=C2C(=CC(=C1)C(=O)N(C)C)C(=O)C=C(O2)N3CCOCC3)NC4=CC(=CC(=C4)F)F

>  <PUBCHEM_OPENEYE_ISO_SMILES>
CC(C1=C2C(=CC(=C1)C(=O)N(C)C)C(=O)C=C(O2)N3CCOCC3)NC4=CC(=CC(=C4)F)F

>  <PUBCHEM_CACTVS_TPSA>
71.1

>  <PUBCHEM_MONOISOTOPIC_WEIGHT>
457.181313

>  <PUBCHEM_TOTAL_CHARGE>
0

>  <PUBCHEM_HEAVY_ATOM_COUNT>
33

>  <PUBCHEM_ATOM_DEF_STEREO_COUNT>
0

>  <PUBCHEM_ATOM_UDEF_STEREO_COUNT>
1

>  <PUBCHEM_BOND_DEF_STEREO_COUNT>
0

>  <PUBCHEM_BOND_UDEF_STEREO_COUNT>
0

>  <PUBCHEM_ISOTOPIC_ATOM_COUNT>
0

>  <PUBCHEM_COMPONENT_COUNT>
1

>  <PUBCHEM_CACTVS_TAUTO_COUNT>
1

>  <PUBCHEM_COORDINATE_TYPE>
1
5
255

>  <PUBCHEM_BONDANNOTATIONS>
10  14  8
10  19  8
13  24  3
14  16  8
15  20  8
16  22  8
16  23  8
19  21  8
20  22  8
21  23  8
26  27  8
26  28  8
27  32  8
28  31  8
3  14  8
3  15  8
31  33  8
32  33  8

$$$$
