
 OpenBabel11121517312D

 63 67  0  0  1  0  0  0  0  0999 V2000
    3.3426   -2.7349    0.0000 Cl  0  0  0  0  0  0  0  0  0  0  0  0
    8.7634    5.4879    0.0000 O   0  0  0  0  0  0  0  0  0  0  0  0
   10.7204    5.9004    0.0000 O   0  0  0  0  0  0  0  0  0  0  0  0
    9.2136   -1.4976    0.0000 O   0  0  0  0  0  0  0  0  0  0  0  0
    9.1206    3.7931    0.0000 N   0  0  0  0  0  0  0  0  0  0  0  0
    7.2566   -1.9100    0.0000 N   0  0  0  0  0  0  0  0  0  0  0  0
    5.9674   -3.0668    0.0000 N   0  0  0  0  0  0  0  0  0  0  0  0
    3.7320   -4.5282    0.0000 N   0  0  0  0  0  0  0  0  0  0  0  0
    5.6103   -1.3719    0.0000 N   0  0  0  0  0  0  0  0  0  0  0  0
    4.6783   -5.8330    0.0000 N   0  0  0  0  0  0  0  0  0  0  0  0
    8.4993    1.8921    0.0000 C   0  0  3  0  0  0  0  0  0  0  0  0
    7.8314    2.6364    0.0000 C   0  0  0  0  0  0  0  0  0  0  0  0
    9.4778    2.0983    0.0000 C   0  0  0  0  0  0  0  0  0  0  0  0
    8.1421    3.5869    0.0000 C   0  0  0  0  0  0  0  0  0  0  0  0
    9.7884    3.0488    0.0000 C   0  0  0  0  0  0  0  0  0  0  0  0
    8.1886    0.9415    0.0000 C   0  0  0  0  0  0  0  0  0  0  0  0
    9.4312    4.7436    0.0000 C   0  0  0  0  0  0  0  0  0  0  0  0
    8.8564    0.1972    0.0000 C   0  0  0  0  0  0  0  0  0  0  0  0
    7.2101    0.7353    0.0000 C   0  0  0  0  0  0  0  0  0  0  0  0
   10.4097    4.9498    0.0000 C   0  0  1  0  0  0  0  0  0  0  0  0
    8.5458   -0.7533    0.0000 C   0  0  0  0  0  0  0  0  0  0  0  0
    6.8994   -0.2152    0.0000 C   0  0  0  0  0  0  0  0  0  0  0  0
    7.5673   -0.9595    0.0000 C   0  0  0  0  0  0  0  0  0  0  0  0
   11.0776    4.2056    0.0000 C   0  0  0  0  0  0  0  0  0  0  0  0
    6.2781   -2.1162    0.0000 C   0  0  0  0  0  0  0  0  0  0  0  0
   10.1921   -1.2914    0.0000 C   0  0  0  0  0  0  0  0  0  0  0  0
    4.9889   -3.2730    0.0000 C   0  0  0  0  0  0  0  0  0  0  0  0
    4.6783   -4.2235    0.0000 C   0  0  0  0  0  0  0  0  0  0  0  0
    3.7320   -5.5282    0.0000 C   0  0  0  0  0  0  0  0  0  0  0  0
    4.3211   -2.5287    0.0000 C   0  0  0  0  0  0  0  0  0  0  0  0
    5.2619   -5.0282    0.0000 C   0  0  0  0  0  0  0  0  0  0  0  0
    4.6318   -1.5782    0.0000 C   0  0  0  0  0  0  0  0  0  0  0  0
    2.8660   -4.0282    0.0000 C   0  0  0  0  0  0  0  0  0  0  0  0
    2.8660   -6.0282    0.0000 C   0  0  0  0  0  0  0  0  0  0  0  0
    2.0000   -4.5282    0.0000 C   0  0  0  0  0  0  0  0  0  0  0  0
    2.0000   -5.5282    0.0000 C   0  0  0  0  0  0  0  0  0  0  0  0
    7.8926    1.7642    0.0000 H   0  0  0  0  0  0  0  0  0  0  0  0
    9.4983    1.4786    0.0000 H   0  0  0  0  0  0  0  0  0  0  0  0
   10.0916    2.0109    0.0000 H   0  0  0  0  0  0  0  0  0  0  0  0
    7.2845    2.9284    0.0000 H   0  0  0  0  0  0  0  0  0  0  0  0
    7.4489    2.1485    0.0000 H   0  0  0  0  0  0  0  0  0  0  0  0
   10.3353    2.7568    0.0000 H   0  0  0  0  0  0  0  0  0  0  0  0
   10.1710    3.5367    0.0000 H   0  0  0  0  0  0  0  0  0  0  0  0
    8.1215    4.2066    0.0000 H   0  0  0  0  0  0  0  0  0  0  0  0
    7.5283    3.6742    0.0000 H   0  0  0  0  0  0  0  0  0  0  0  0
    9.4631    0.3251    0.0000 H   0  0  0  0  0  0  0  0  0  0  0  0
    6.7960    1.1968    0.0000 H   0  0  0  0  0  0  0  0  0  0  0  0
    9.9957    5.4113    0.0000 H   0  0  0  0  0  0  0  0  0  0  0  0
    6.2928   -0.3430    0.0000 H   0  0  0  0  0  0  0  0  0  0  0  0
   10.6161    3.7915    0.0000 H   0  0  0  0  0  0  0  0  0  0  0  0
   11.4917    3.7441    0.0000 H   0  0  0  0  0  0  0  0  0  0  0  0
   11.5391    4.6196    0.0000 H   0  0  0  0  0  0  0  0  0  0  0  0
    7.6707   -2.3715    0.0000 H   0  0  0  0  0  0  0  0  0  0  0  0
   11.3271    6.0282    0.0000 H   0  0  0  0  0  0  0  0  0  0  0  0
   10.3200   -1.8980    0.0000 H   0  0  0  0  0  0  0  0  0  0  0  0
   10.7988   -1.1635    0.0000 H   0  0  0  0  0  0  0  0  0  0  0  0
   10.0643   -0.6847    0.0000 H   0  0  0  0  0  0  0  0  0  0  0  0
    5.8819   -5.0282    0.0000 H   0  0  0  0  0  0  0  0  0  0  0  0
    4.2177   -1.1167    0.0000 H   0  0  0  0  0  0  0  0  0  0  0  0
    2.8660   -3.4082    0.0000 H   0  0  0  0  0  0  0  0  0  0  0  0
    2.8660   -6.6482    0.0000 H   0  0  0  0  0  0  0  0  0  0  0  0
    1.4631   -4.2182    0.0000 H   0  0  0  0  0  0  0  0  0  0  0  0
    1.4631   -5.8382    0.0000 H   0  0  0  0  0  0  0  0  0  0  0  0
  1 30  1  0  0  0  0
  2 17  2  0  0  0  0
  3 54  1  0  0  0  0
  4 21  1  0  0  0  0
  4 26  1  0  0  0  0
  5 14  1  0  0  0  0
  5 15  1  0  0  0  0
  5 17  1  0  0  0  0
  6 23  1  0  0  0  0
  6 25  1  0  0  0  0
  6 53  1  0  0  0  0
  7 25  1  0  0  0  0
  7 27  2  0  0  0  0
  8 28  1  0  0  0  0
  8 29  1  0  0  0  0
  8 33  1  0  0  0  0
  9 25  2  0  0  0  0
  9 32  1  0  0  0  0
 10 29  2  0  0  0  0
 10 31  1  0  0  0  0
 11 12  1  0  0  0  0
 11 13  1  0  0  0  0
 11 16  1  0  0  0  0
 11 37  1  0  0  0  0
 12 14  1  0  0  0  0
 12 40  1  0  0  0  0
 12 41  1  0  0  0  0
 13 15  1  0  0  0  0
 13 38  1  0  0  0  0
 13 39  1  0  0  0  0
 14 44  1  0  0  0  0
 14 45  1  0  0  0  0
 15 42  1  0  0  0  0
 15 43  1  0  0  0  0
 16 18  2  0  0  0  0
 16 19  1  0  0  0  0
 17 20  1  0  0  0  0
 18 21  1  0  0  0  0
 18 46  1  0  0  0  0
 19 22  2  0  0  0  0
 19 47  1  0  0  0  0
 20  3  1  0  0  0  0
 20 24  1  0  0  0  0
 20 48  1  1  0  0  0
 21 23  2  0  0  0  0
 22 23  1  0  0  0  0
 22 49  1  0  0  0  0
 24 50  1  0  0  0  0
 24 51  1  0  0  0  0
 24 52  1  0  0  0  0
 26 55  1  0  0  0  0
 26 56  1  0  0  0  0
 26 57  1  0  0  0  0
 27 28  1  0  0  0  0
 27 30  1  0  0  0  0
 28 31  2  0  0  0  0
 29 34  1  0  0  0  0
 30 32  2  0  0  0  0
 31 58  1  0  0  0  0
 32 59  1  0  0  0  0
 33 35  2  0  0  0  0
 33 60  1  0  0  0  0
 34 36  2  0  0  0  0
 34 61  1  0  0  0  0
 35 36  1  0  0  0  0
 35 62  1  0  0  0  0
 36 63  1  0  0  0  0
M  END
>  <PUBCHEM_COMPOUND_CID>
68592449

>  <PUBCHEM_COMPOUND_CANONICALIZED>
1

>  <PUBCHEM_CACTVS_COMPLEXITY>
741

>  <PUBCHEM_CACTVS_HBOND_ACCEPTOR>
7

>  <PUBCHEM_CACTVS_HBOND_DONOR>
2

>  <PUBCHEM_CACTVS_ROTATABLE_BOND>
6

>  <PUBCHEM_CACTVS_SUBSKEYS>
AAADceB7sAAEAAAAAAAAAAAAAAAAAWAAAAA8WLEAAAAAAFgB/AAAHgIQCAAADR7hnyY/9p/MHgCoAzd3dAKCiC0xN6AJ2CF/fpiOfuLF+dvVNChs1hPY6CeQwPAOiAABAAAAEAAQAAIAAAAgAAAAAAAAAA==

>  <PUBCHEM_IUPAC_OPENEYE_NAME>
(2R)-1-[4-[4-[(5-chloro-4-imidazo[1,2-a]pyridin-3-yl-pyrimidin-2-yl)amino]-3-methoxy-phenyl]-1-piperidyl]-2-hydroxy-propan-1-one

>  <PUBCHEM_IUPAC_CAS_NAME>
(2R)-1-[4-[4-[[5-chloro-4-(3-imidazo[1,2-a]pyridinyl)-2-pyrimidinyl]amino]-3-methoxyphenyl]-1-piperidinyl]-2-hydroxy-1-propanone

>  <PUBCHEM_IUPAC_NAME>
(2R)-1-[4-[4-[(5-chloro-4-imidazo[1,2-a]pyridin-3-ylpyrimidin-2-yl)amino]-3-methoxyphenyl]piperidin-1-yl]-2-hydroxypropan-1-one

>  <PUBCHEM_IUPAC_SYSTEMATIC_NAME>
(2R)-1-[4-[4-[(5-chloranyl-4-imidazo[1,2-a]pyridin-3-yl-pyrimidin-2-yl)amino]-3-methoxy-phenyl]piperidin-1-yl]-2-oxidanyl-propan-1-one

>  <PUBCHEM_IUPAC_TRADITIONAL_NAME>
(2R)-1-[4-[4-[(5-chloro-4-imidazo[1,2-a]pyridin-3-yl-pyrimidin-2-yl)amino]-3-methoxy-phenyl]piperidino]-2-hydroxy-propan-1-one

>  <PUBCHEM_IUPAC_INCHI>
InChI=1S/C26H27ClN6O3/c1-16(34)25(35)32-11-8-17(9-12-32)18-6-7-20(22(13-18)36-2)30-26-29-14-19(27)24(31-26)21-15-28-23-5-3-4-10-33(21)23/h3-7,10,13-17,34H,8-9,11-12H2,1-2H3,(H,29,30,31)/t16-/m1/s1

>  <PUBCHEM_IUPAC_INCHIKEY>
BWHSKWLYLXKFHO-MRXNPFEDSA-N

>  <PUBCHEM_XLOGP3_AA>
4

>  <PUBCHEM_EXACT_MASS>
506.183316

>  <PUBCHEM_MOLECULAR_FORMULA>
C26H27ClN6O3

>  <PUBCHEM_MOLECULAR_WEIGHT>
506.98398

>  <PUBCHEM_OPENEYE_CAN_SMILES>
CC(C(=O)N1CCC(CC1)C2=CC(=C(C=C2)NC3=NC=C(C(=N3)C4=CN=C5N4C=CC=C5)Cl)OC)O

>  <PUBCHEM_OPENEYE_ISO_SMILES>
C[C@H](C(=O)N1CCC(CC1)C2=CC(=C(C=C2)NC3=NC=C(C(=N3)C4=CN=C5N4C=CC=C5)Cl)OC)O

>  <PUBCHEM_CACTVS_TPSA>
105

>  <PUBCHEM_MONOISOTOPIC_WEIGHT>
506.183316

>  <PUBCHEM_TOTAL_CHARGE>
0

>  <PUBCHEM_HEAVY_ATOM_COUNT>
36

>  <PUBCHEM_ATOM_DEF_STEREO_COUNT>
1

>  <PUBCHEM_ATOM_UDEF_STEREO_COUNT>
0

>  <PUBCHEM_BOND_DEF_STEREO_COUNT>
0

>  <PUBCHEM_BOND_UDEF_STEREO_COUNT>
0

>  <PUBCHEM_ISOTOPIC_ATOM_COUNT>
0

>  <PUBCHEM_COMPONENT_COUNT>
1

>  <PUBCHEM_CACTVS_TAUTO_COUNT>
3

>  <PUBCHEM_COORDINATE_TYPE>
1
5
255

>  <PUBCHEM_BONDANNOTATIONS>
10  29  8
10  31  8
16  18  8
16  19  8
18  21  8
19  22  8
21  23  8
22  23  8
27  30  8
28  31  8
29  34  8
20  3  6
30  32  8
33  35  8
34  36  8
35  36  8
7  25  8
7  27  8
8  28  8
8  29  8
8  33  8
9  25  8
9  32  8

$$$$
